97
CH1007.out: Geometry 27
C      4.2776490000    0.5552850000    0.9497280000
O      3.7803470000    0.9485590000    1.9880190000
C      5.5058620000    1.1086440000    0.3236620000
C      6.3012270000    2.1425300000    0.8046760000
C      7.4558120000    2.4463340000    0.0920220000
F      8.2759210000    3.4101990000    0.5019040000
C      7.7861600000    1.7258350000   -1.0706710000
F      8.9161590000    2.0298030000   -1.7024010000
C      6.9761250000    0.7050530000   -1.5610220000
C      5.8140330000    0.3880370000   -0.8455700000
C      4.7790400000   -0.6541900000   -1.0467190000
C      4.6716670000   -1.4716740000   -2.1557630000
C      3.6329000000   -2.4435640000   -2.3069360000
N      2.7963770000   -3.2388950000   -2.4432160000
C      5.5740810000   -1.3885400000   -3.2615830000
N      6.3025940000   -1.3207190000   -4.1644830000
C      3.8768810000   -0.6080890000    0.1056340000
C      3.0146460000   -1.6081090000    0.5109900000
C      2.1180260000   -1.6038720000    1.6140220000
Se     2.0660660000   -3.2648440000    2.6028710000
C      1.0550750000   -2.3525260000    3.8812170000
C      0.7860870000   -1.0368530000    3.4506190000
C      1.3179610000   -0.6173620000    2.2085800000
C      0.9102460000    0.7059880000    1.6086210000
C      0.5395470000    0.6592680000    0.1222770000
S     -0.1056550000   -0.0830600000    4.6380980000
C     -0.0836860000   -1.4457420000    5.7128320000
C      0.5535950000   -2.5762960000    5.1849030000
N      0.5126030000   -3.6152370000    6.1112950000
C      0.5050750000   -4.9893050000    5.5972140000
C     -0.8823110000   -5.4385190000    5.1482820000
C     -0.1475760000   -3.1281140000    7.2567170000
C     -0.5319360000   -1.7738550000    7.0079590000
C     -1.2562330000   -0.9957040000    7.9655330000
N     -1.6326010000    0.2719930000    7.8530300000
S     -2.4561080000    0.6486600000    9.2392580000
N     -2.3449520000   -0.8133360000   10.0102870000
C     -1.6673400000   -1.6201740000    9.2034930000
C     -1.2642040000   -2.9678570000    9.4625750000
C     -0.4495640000   -3.7061100000    8.5422160000
N     -0.0819330000   -4.9026410000    9.1640030000
C      0.9257570000   -5.8817650000    8.7727190000
C      0.3336400000   -7.2007560000    8.2770780000
C     -0.6788800000   -4.9426890000   10.4145280000
C     -1.4261040000   -3.7708320000   10.6074480000
S     -2.2161880000   -3.6943770000   12.1503080000
C     -1.5119160000   -5.2604110000   12.5758460000
C     -0.7099150000   -5.7942240000   11.5419020000
Se     0.0084250000   -7.4433810000   12.0413090000
C     -0.8781510000   -7.1998250000   13.7331340000
C     -1.6499140000   -6.0278260000   13.7594130000
C     -2.7041900000   -5.7366410000   14.7989520000
C     -2.7143940000   -4.3187470000   15.3818530000
C     -0.6903830000   -8.2529680000   14.6708160000
C     -0.6236710000   -8.2128770000   16.0490350000
C     -0.5058150000   -9.3699640000   16.9393370000
C     -0.7149790000  -10.7002880000   16.6214520000
C     -0.5594500000  -11.7540480000   17.5756600000
N     -0.4314630000  -12.6208510000   18.3391990000
C     -1.1253520000  -11.1565050000   15.3288130000
N     -1.4680160000  -11.5713340000   14.2982550000
C     -0.1599930000   -8.8611740000   18.2891460000
C      0.0719260000   -9.5147970000   19.5076910000
C      0.3611260000   -8.7356260000   20.6243160000
F      0.5913100000   -9.3196320000   21.7976460000
C      0.4178440000   -7.3311350000   20.5556490000
F      0.6827190000   -6.6478040000   21.6646200000
C      0.1998930000   -6.6746360000   19.3499520000
C     -0.0880940000   -7.4560280000   18.2373200000
C     -0.3720440000   -6.9826130000   16.8584090000
O     -0.3310590000   -5.8255160000   16.4874780000
H      6.0406620000    2.6857330000    1.7143390000
H      7.2924230000    0.1895190000   -2.4652240000
H      3.1103960000   -2.5705250000   -0.0002000000
H      1.7198120000    1.4302660000    1.7828100000
H      0.0409410000    1.0712360000    2.1790550000
H      1.4058220000    0.4276420000   -0.5126710000
H      0.1398410000    1.6329610000   -0.2004960000
H     -0.2294560000   -0.1033410000   -0.0738050000
H      0.9182650000   -5.6715890000    6.3419020000
H      1.2105770000   -5.0145050000    4.7539040000
H     -1.5915060000   -5.4237650000    5.9903260000
H     -0.8418020000   -6.4632040000    4.7474360000
H     -1.2717090000   -4.7769900000    4.3598820000
H      1.5635120000   -6.0654080000    9.6526340000
H      1.5794840000   -5.4100410000    8.0291650000
H     -0.2102110000   -7.7171480000    9.0824770000
H      1.1350670000   -7.8687070000    7.9251920000
H     -0.3750760000   -7.0429380000    7.4521180000
H     -2.6243120000   -6.4699080000   15.6085660000
H     -3.6742640000   -5.9310970000   14.3024420000
H     -1.7367610000   -4.0646850000   15.8091590000
H     -3.4667750000   -4.2503140000   16.1824200000
H     -2.9788370000   -3.5615270000   14.6295980000
H     -0.5038540000   -9.2271180000   14.2116110000
H      0.0411760000  -10.5957610000   19.6305650000
H      0.2499070000   -5.5862890000   19.2831720000