152
EH-IDTBR.out: Geometry 51
S     -1.3410900000   -1.2183480000   -2.6167310000
C     -0.7329790000   -0.0680080000   -3.8212780000
S     -0.8731790000   -0.3318630000   -5.4377540000
N     -0.1488150000    1.0129620000   -3.2075730000
C      0.4885010000    2.0991140000   -3.9537580000
C      1.9204980000    1.7610800000   -4.3598060000
C     -0.1751180000    1.0389990000   -1.8058050000
O      0.2997880000    1.9385650000   -1.1455540000
C     -0.9059230000   -0.1541150000   -1.2821290000
C     -1.2362900000   -0.1771340000    0.0374330000
C     -2.0867980000   -1.0513520000    0.8137590000
C     -2.4593940000   -2.3930230000    0.4530720000
N     -1.9484800000   -3.0968860000   -0.5556480000
S     -2.6764940000   -4.5659380000   -0.5598250000
N     -3.6637380000   -4.3621760000    0.7355880000
C     -3.4578020000   -3.1356510000    1.2171030000
C     -4.1273140000   -2.5338440000    2.3496220000
C     -3.6556110000   -1.2736070000    2.7149440000
C     -2.6686230000   -0.5722270000    1.9874590000
C     -5.2672960000   -3.1667020000    2.9828540000
C     -5.7196690000   -4.4781160000    2.8590360000
C     -6.9746770000   -4.6763190000    3.4678750000
C     -7.4809320000   -3.5400110000    4.0775470000
S     -6.4190390000   -2.1867210000    3.9131390000
C     -8.8420310000   -3.7599640000    4.5235730000
C     -9.1977390000   -5.0831610000    4.1261290000
C     -8.0013800000   -5.7959110000    3.4682170000
C     -8.2714680000   -6.2745840000    2.0147600000
C     -8.3715630000   -5.1846860000    0.9307170000
C     -8.0906270000   -5.7758720000   -0.4651050000
C     -6.6444800000   -6.2283080000   -0.6854140000
C     -9.6988360000   -4.3984560000    0.9494430000
C     -9.5341570000   -2.9460910000    0.4994300000
C     -7.4710540000   -6.9373060000    4.3882510000
C     -8.2082780000   -8.2931600000    4.4025710000
C     -7.6460680000   -9.2704040000    3.3405610000
C     -8.6952680000  -10.1412800000    2.6525670000
C     -8.1175160000   -8.8729770000    5.8301240000
C     -8.6508850000  -10.2886430000    6.0395200000
C    -10.4974960000   -5.5359440000    4.3201720000
C    -11.4364860000   -4.6517820000    4.8809820000
C    -11.0704590000   -3.3413800000    5.3048300000
C     -9.7627420000   -2.9035310000    5.1458870000
C    -12.2852530000   -2.5781410000    5.8624040000
C    -12.1226050000   -2.1333490000    7.3442400000
C    -12.2912370000   -3.1884950000    8.4482990000
C    -11.1763320000   -4.2622290000    8.4579160000
C    -11.6917370000   -5.6868420000    8.6696560000
C    -12.4077330000   -2.4562630000    9.7983470000
C    -12.6424490000   -3.3411100000   11.0209360000
C    -12.6347590000   -1.3342790000    4.9939590000
C    -11.6274580000   -0.1542720000    5.0329670000
C    -10.7648850000   -0.1024470000    3.7494410000
C     -9.3390880000    0.4256070000    3.9295690000
C    -12.3884620000    1.1517030000    5.3377140000
C    -11.5468490000    2.4124590000    5.5299650000
C    -13.3757520000   -3.6240070000    5.6870100000
C    -12.8541640000   -4.7882510000    5.1338720000
S    -14.0418200000   -6.0154370000    4.9101490000
C    -15.3010450000   -4.9464680000    5.5556190000
C    -14.7584210000   -3.7090220000    5.9237770000
C    -16.6880340000   -5.3533280000    5.6440670000
C    -17.1255930000   -6.6855280000    5.3065580000
N    -16.3424210000   -7.6724170000    4.8716410000
S    -17.2940730000   -8.9831810000    4.6195250000
N    -18.7378170000   -8.3390370000    5.0598170000
C    -18.5222500000   -7.0731000000    5.4186250000
C    -19.5321090000   -6.1426580000    5.8748890000
C    -19.0649600000   -4.8590990000    6.1697490000
C    -17.7064020000   -4.4892990000    6.0578260000
C    -20.8755860000   -6.6596020000    5.9814840000
C    -22.0907220000   -6.1411500000    6.3307810000
S    -23.5234510000   -7.1904050000    6.3524380000
C    -24.6043120000   -5.8638410000    6.7660540000
S    -26.2292920000   -6.0475340000    6.9435080000
N    -23.8814040000   -4.6993120000    6.8965360000
C    -24.5197760000   -3.4194010000    7.2209360000
C    -24.8451580000   -3.2819400000    8.7036400000
C    -22.4911760000   -4.7630160000    6.6893350000
O    -21.7767770000   -3.7816470000    6.7893840000
H      0.4566000000    2.9766470000   -3.2938810000
H     -0.1330960000    2.2876930000   -4.8402380000
H      2.5384770000    1.5447150000   -3.4752440000
H      2.3714680000    2.6115460000   -4.8946840000
H      1.9367450000    0.8873820000   -5.0279930000
H     -0.8638720000    0.7022410000    0.5748610000
H     -4.0913850000   -0.7831290000    3.5879790000
H     -2.3790630000    0.4212550000    2.3375850000
H     -5.1702590000   -5.2220390000    2.2869790000
H     -7.4362160000   -6.9345860000    1.7473570000
H     -9.1751550000   -6.9082160000    1.9996750000
H     -7.5670940000   -4.4580110000    1.1232380000
H     -8.3418250000   -5.0149240000   -1.2232910000
H     -8.7837960000   -6.6173590000   -0.6469890000
H     -6.3482130000   -7.0357440000    0.0040340000
H     -6.4968180000   -6.6143630000   -1.7069270000
H     -5.9419780000   -5.3942550000   -0.5269850000
H    -10.1281170000   -4.3990490000    1.9590110000
H    -10.4355230000   -4.9182070000    0.3116130000
H     -8.8926740000   -2.3951240000    1.2068930000
H    -10.5011320000   -2.4216610000    0.4476570000
H     -9.0613420000   -2.8748900000   -0.4943810000
H     -7.4531790000   -6.5204500000    5.4080010000
H     -6.4170310000   -7.1227820000    4.1209790000
H     -9.2759740000   -8.1248960000    4.1765350000
H     -6.8825020000   -9.9097290000    3.8179530000
H     -7.1030180000   -8.7087630000    2.5677900000
H     -9.4144470000   -9.5192020000    2.0935890000
H     -8.2281000000  -10.8353130000    1.9352930000
H     -9.2739110000  -10.7427570000    3.3707160000
H     -8.6443170000   -8.1832910000    6.5113410000
H     -7.0558420000   -8.8481440000    6.1394470000
H     -9.7205260000  -10.3694600000    5.7846670000
H     -8.5347490000  -10.5897260000    7.0931050000
H     -8.1063860000  -11.0265640000    5.4321160000
H    -10.8065240000   -6.5307410000    3.9966020000
H     -9.4531020000   -1.9137700000    5.4734020000
H    -12.8700470000   -1.3425530000    7.5213880000
H    -11.1407630000   -1.6462160000    7.4617770000
H    -13.2521990000   -3.7016830000    8.2704880000
H    -10.4367130000   -4.0041640000    9.2357590000
H    -10.6201010000   -4.2350270000    7.5117720000
H    -12.3220580000   -5.7696390000    9.5682850000
H    -10.8613600000   -6.4029420000    8.7754530000
H    -12.3056800000   -6.0056830000    7.8122140000
H    -13.2254860000   -1.7171960000    9.7247570000
H    -11.4873050000   -1.8624370000    9.9529960000
H    -13.5604690000   -3.9427140000   10.9159490000
H    -12.7476080000   -2.7266630000   11.9291550000
H    -11.8084160000   -4.0392710000   11.1926660000
H    -13.6188850000   -0.9853610000    5.3465600000
H    -12.7889030000   -1.6646450000    3.9539740000
H    -10.9387180000   -0.3109470000    5.8789200000
H    -11.2944170000    0.4900430000    2.9820430000
H    -10.6940900000   -1.1188270000    3.3330130000
H     -9.3069070000    1.4837060000    4.2267200000
H     -8.7605580000    0.3146830000    2.9987590000
H     -8.8009780000   -0.1393610000    4.7074490000
H    -12.9799850000    0.9809580000    6.2541380000
H    -13.1298710000    1.3249130000    4.5359840000
H    -10.7262060000    2.2461220000    6.2471000000
H    -12.1665510000    3.2353670000    5.9202410000
H    -11.0978920000    2.7613750000    4.5879130000
H    -15.3581530000   -2.9079520000    6.3559140000
H    -19.7848700000   -4.1134310000    6.5034050000
H    -17.4520510000   -3.4610740000    6.3182410000
H    -20.9079220000   -7.7210860000    5.7137590000
H    -25.4355290000   -3.3543990000    6.6167280000
H    -23.8142900000   -2.6435350000    6.8958590000
H    -25.5549540000   -4.0590210000    9.0186540000
H    -25.3072670000   -2.3002100000    8.8937170000
H    -23.9326940000   -3.3603320000    9.3132440000