89
ZY-4Cl.out: Geometry 10
C      3.6876210000    2.6165470000    0.3770780000
O      4.6116610000    2.5159140000   -0.4127960000
C      2.3630750000    3.2678520000    0.0967920000
C      1.8931470000    3.8259130000   -1.0848230000
C      0.6016950000    4.3683870000   -1.0925400000
Cl    -0.0124080000    5.0475340000   -2.5644490000
C     -0.1936730000    4.3623480000    0.0784780000
Cl    -1.7838160000    5.0534490000    0.0694190000
C      0.2919160000    3.7948000000    1.2625590000
C      1.5671120000    3.2466620000    1.2514610000
C      2.3043270000    2.5480440000    2.3500770000
O      1.9054140000    2.3517270000    3.4825650000
C      3.6102340000    2.1385290000    1.7693200000
C      4.4726420000    1.3769900000    2.5095740000
C      5.7595740000    0.8330360000    2.2819500000
S      6.7804000000    1.1452070000    0.8570450000
C      8.0479090000    0.1690670000    1.5323840000
C      7.6771260000   -0.3786550000    2.7805290000
C      6.3932320000   -0.0163020000    3.2158810000
C      5.7580520000   -0.5821870000    4.4566550000
C      5.0136710000   -1.8949750000    4.1587010000
S      8.9168970000   -1.4018770000    3.5075630000
C      9.9362950000   -1.0868970000    2.1310170000
C      9.3485360000   -0.2565830000    1.1645270000
N     10.2372850000   -0.0678790000    0.1148010000
C     10.1012070000    1.1087110000   -0.7470710000
C     10.2401610000    2.4279510000    0.0105800000
C     11.3965270000   -0.8003060000    0.3995130000
C     11.2284730000   -1.4198790000    1.6776470000
C     12.2719240000   -2.1837270000    2.2898070000
N     12.2315300000   -2.8033520000    3.4609220000
S     13.7201930000   -3.4968140000    3.6865630000
N     14.4426760000   -3.0147740000    2.2757580000
C     13.5440170000   -2.3045600000    1.6078210000
C     13.6799280000   -1.7540020000    0.2940880000
C     12.5998910000   -1.0670670000   -0.3498830000
N     12.9595880000   -0.8589490000   -1.6835150000
C     12.1235150000   -0.5136610000   -2.8311830000
C     12.4393230000    0.8614090000   -3.4210380000
C     14.2343010000   -1.3681420000   -1.8709690000
C     14.7015180000   -1.9084850000   -0.6627180000
S     16.2502110000   -2.6960970000   -0.7947010000
C     16.2489370000   -2.3363020000   -2.5234690000
C     15.1150750000   -1.6146770000   -2.9531220000
S     15.1586550000   -1.3092260000   -4.6607090000
C     16.6936710000   -2.2031470000   -4.8003730000
C     17.1394680000   -2.6872590000   -3.5506340000
C     18.4093840000   -3.4501270000   -3.2975510000
C     19.5667050000   -2.5324390000   -2.8786690000
C     17.3679220000   -2.4726770000   -6.0166120000
C     17.1337670000   -2.1306200000   -7.3218600000
C     17.9893210000   -2.6873950000   -8.4021000000
O     18.9455710000   -3.4278250000   -8.2757800000
C     17.4244450000   -2.1621080000   -9.6865030000
C     17.8201290000   -2.4187980000  -10.9925750000
C     17.1096040000   -1.8003400000  -12.0292830000
Cl    17.5642840000   -2.1225440000  -13.6711740000
C     16.0320270000   -0.9283670000  -11.7463970000
Cl    15.1720540000   -0.1605490000  -13.0412580000
C     15.6428030000   -0.6791370000  -10.4242540000
C     16.3439070000   -1.3134070000   -9.4060980000
C     16.1066720000   -1.2636530000   -7.9253980000
O     15.2267280000   -0.6247280000   -7.3718170000
H      2.5036280000    3.8386770000   -1.9888250000
H     -0.3218580000    3.7790810000    2.1642680000
H      4.0651470000    1.1358960000    3.4979540000
H      5.0689510000    0.1439960000    4.9123390000
H      6.5493280000   -0.7643010000    5.2016210000
H      4.1886080000   -1.7233260000    3.4507520000
H      4.5925200000   -2.3292080000    5.0785230000
H      5.6933770000   -2.6339370000    3.7072100000
H      9.1220520000    1.0500740000   -1.2496540000
H     10.8595600000    1.0509750000   -1.5266160000
H     11.2190890000    2.4916210000    0.5101960000
H      9.4551730000    2.5467740000    0.7717430000
H     10.1514030000    3.2678090000   -0.6961160000
H     11.0743350000   -0.6044670000   -2.5235730000
H     12.2837310000   -1.2891180000   -3.5979630000
H     11.7191350000    1.1075420000   -4.2151540000
H     13.4452150000    0.8811350000   -3.8656640000
H     12.3987510000    1.6508990000   -2.6552830000
H     18.6950880000   -4.0357310000   -4.1834030000
H     18.2112410000   -4.1824440000   -2.4974680000
H     19.8279330000   -1.8356620000   -3.6892960000
H     20.4608680000   -3.1237540000   -2.6287480000
H     19.2933840000   -1.9333620000   -1.9963470000
H     18.2529840000   -3.1116440000   -5.9053850000
H     18.6564430000   -3.0838410000  -11.2116890000
H     14.8065040000   -0.0136230000  -10.2077480000