122
Y14.out: Geometry 140
C      0.1350500000   -2.8348020000   -0.9567500000
O     -0.4231740000   -3.9119170000   -1.0880450000
C      1.3812910000   -2.4154000000   -1.6540520000
C      2.1531740000   -3.1619820000   -2.5340520000
C      3.2911060000   -2.5429890000   -3.0516600000
C      3.6391970000   -1.2315280000   -2.7143790000
C      2.8490330000   -0.4954610000   -1.8270360000
C      1.7060460000   -1.0965140000   -1.2785000000
C      0.6985170000   -0.6179690000   -0.2998230000
C      0.7072090000    0.6404000000    0.2823760000
C      1.6405780000    1.6616600000   -0.0762980000
N      2.3762580000    2.5154630000   -0.3605850000
C     -0.2305870000    1.0686280000    1.2726980000
N     -0.9662110000    1.4644290000    2.0822990000
C     -0.2677050000   -1.6999410000   -0.0967710000
C     -1.3727390000   -1.6560920000    0.7357540000
C     -2.4463910000   -2.5305180000    1.0148740000
S     -2.7540260000   -4.1089930000    0.2395980000
C     -4.2226900000   -4.2833990000    1.1360040000
C     -4.4446640000   -3.1987920000    2.0116050000
C     -3.4624980000   -2.1998760000    1.9563560000
C     -3.5195460000   -0.9777710000    2.8333330000
C     -3.2577460000   -1.3129910000    4.3103580000
S     -5.9253520000   -3.3597520000    2.9653360000
C     -6.2388600000   -4.8839260000    2.1711980000
C     -5.2590800000   -5.2373780000    1.2326290000
N     -5.6086380000   -6.4206410000    0.6067940000
C     -4.9989980000   -6.7499840000   -0.6784080000
C     -5.9040070000   -6.5621940000   -1.9086170000
C     -6.8271130000   -6.8478590000    1.1533170000
C     -7.2374040000   -5.8750150000    2.1272880000
C     -8.5168060000   -5.9774140000    2.7411220000
N     -9.1338800000   -5.1819530000    3.6265810000
N    -10.3241860000   -5.7534820000    3.7731480000
C    -11.3691430000   -5.1241810000    4.5683940000
C    -12.2840970000   -4.2541370000    3.7119520000
N    -10.5569980000   -6.8431280000    3.0498970000
C     -9.4081790000   -7.0201410000    2.3771140000
C     -8.9880430000   -8.0353050000    1.4671790000
C     -7.6749440000   -7.9762500000    0.8845660000
N     -7.4957990000   -9.1279490000    0.1035960000
C     -6.2571960000   -9.7780240000   -0.3157770000
C     -5.3580810000  -10.3128130000    0.8134150000
C     -8.6648750000   -9.8620270000    0.1652450000
C     -9.5950030000   -9.2187600000    0.9938680000
S    -11.0888930000  -10.1087910000    1.1715470000
C    -10.4536970000  -11.3662060000    0.1028850000
C     -9.1588250000  -11.0734440000   -0.3699060000
S     -8.6244990000  -12.2650890000   -1.4995260000
C    -10.1342530000  -13.1830290000   -1.3086290000
C    -11.0147740000  -12.5634880000   -0.4004970000
C    -12.4226530000  -12.9916860000   -0.0877990000
C    -12.6636230000  -13.2771660000    1.4032720000
C    -10.3046870000  -14.2812390000   -2.2025800000
C    -11.0696130000  -15.4235090000   -2.1756850000
C    -11.7542420000  -16.1713800000   -1.1329560000
C    -11.4117050000  -16.1923570000    0.2070040000
C    -12.1309510000  -16.9626840000    1.1712120000
N    -12.7231250000  -17.5573200000    1.9754730000
C    -10.2481890000  -15.5248220000    0.6981790000
N     -9.2956740000  -14.9993020000    1.1080870000
C    -12.7005110000  -17.1013680000   -1.7962070000
C    -13.7033790000  -17.9443640000   -1.2971600000
C    -14.4015350000  -18.7660310000   -2.1882200000
C    -14.0875580000  -18.7623220000   -3.5533580000
C    -13.0952920000  -17.9318960000   -4.0760860000
C    -12.4290650000  -17.1051730000   -3.1814950000
C    -11.3652840000  -16.1048050000   -3.4838640000
O    -10.8684730000  -15.8717950000   -4.5655490000
F    -14.7613910000  -19.5743480000   -4.3744230000
F      4.0795730000   -3.2194880000   -3.8914010000
C     -6.0594770000  -11.3436500000    1.7291090000
C     -6.8165620000  -10.7516130000    2.9202070000
C     -4.0990130000  -10.9019070000    0.1627190000
C     -6.4028120000   -5.1106930000   -2.1042400000
C     -7.6359820000   -4.6977940000   -1.2978000000
C     -5.1205460000   -7.0297740000   -3.1408760000
H      1.8813180000   -4.1817270000   -2.8087460000
H      4.5353990000   -0.7959350000   -3.1588860000
H      3.1460210000    0.5202500000   -1.5767000000
H     -1.4696340000   -0.7381430000    1.3091740000
H     -4.5284630000   -0.5399450000    2.7347370000
H     -2.8177140000   -0.2002990000    2.5060250000
H     -3.9656290000   -2.0672600000    4.6845920000
H     -3.3632070000   -0.4098250000    4.9294780000
H     -2.2411350000   -1.7133920000    4.4483350000
H     -4.5812690000   -7.7633860000   -0.6448100000
H     -4.1302240000   -6.0871510000   -0.7861050000
H     -6.7896200000   -7.2106370000   -1.7871810000
H    -10.8498360000   -4.5293200000    5.3314240000
H    -11.9270210000   -5.9304830000    5.0652170000
H    -11.6969040000   -3.4877430000    3.1842180000
H    -13.0290170000   -3.7477630000    4.3447470000
H    -12.8148760000   -4.8654230000    2.9667710000
H     -5.6908890000   -9.1089360000   -0.9671640000
H     -6.5543640000  -10.6194340000   -0.9564600000
H     -5.0482390000   -9.4518910000    1.4336540000
H    -12.6940670000  -13.8648490000   -0.6932200000
H    -13.0952350000  -12.1765610000   -0.4103460000
H    -13.6917460000  -13.6314420000    1.5707560000
H    -12.5121890000  -12.3727200000    2.0110890000
H    -11.9735480000  -14.0375630000    1.7874050000
H     -9.7711120000  -14.1764780000   -3.1580670000
H    -13.9576480000  -17.9715560000   -0.2382420000
H    -15.1941540000  -19.4272050000   -1.8331450000
H    -12.8473850000  -17.9293260000   -5.1389800000
H     -5.2895760000  -12.0292130000    2.1221960000
H     -6.7362190000  -11.9800700000    1.1291700000
H     -6.1295380000  -10.2090840000    3.5902550000
H     -7.2972520000  -11.5485430000    3.5085980000
H     -7.6051200000  -10.0502250000    2.6193060000
H     -4.3504640000  -11.7666600000   -0.4734520000
H     -3.3871110000  -11.2469130000    0.9270660000
H     -3.5801960000  -10.1624480000   -0.4697180000
H     -6.6459790000   -4.9905670000   -3.1739550000
H     -5.5681880000   -4.4132100000   -1.9111980000
H     -8.4477290000   -5.4352560000   -1.4131700000
H     -8.0187920000   -3.7298360000   -1.6573870000
H     -7.4349440000   -4.5892530000   -0.2243910000
H     -4.2577440000   -6.3693840000   -3.3261780000
H     -5.7548550000   -7.0105580000   -4.0392880000
H     -4.7320520000   -8.0549430000   -3.0242110000