116
BDTN-Th.out: Geometry 94
C      4.0477290000    3.6216480000    1.3816260000
O      4.2880870000    4.3018300000    0.4076110000
C      3.8122310000    4.0610220000    2.7803770000
C      3.5242990000    2.9141290000    3.5943740000
C      3.4828840000    1.7153300000    2.7420510000
C      2.8784970000    0.5216820000    3.1107540000
C      2.4743910000    0.2965720000    4.4616460000
N      2.1818750000    0.1251880000    5.5739460000
C      2.5205240000   -0.4822810000    2.1671040000
N      2.2074980000   -1.2931780000    1.3950490000
C      3.9875410000    2.1102250000    1.4351240000
C      4.5417190000    1.4229450000    0.3736770000
C     13.1690740000  -14.6882220000    1.5607420000
O     12.6849800000  -13.8385710000    2.2869070000
C     13.9868180000  -15.8555410000    1.9628050000
C     14.3821480000  -16.5818960000    0.7912770000
C     13.8152970000  -15.9298350000   -0.3995510000
C     14.0377950000  -16.3688030000   -1.6961300000
C     14.8784250000  -17.4960330000   -1.9475710000
N     15.5718180000  -18.4114990000   -2.1296500000
C     13.4814170000  -15.7498710000   -2.8556480000
N     13.0227060000  -15.2517460000   -3.8013640000
C     13.0478690000  -14.7743530000    0.0761440000
C     12.3064590000  -13.9176560000   -0.7129690000
C      5.0571870000    0.1071280000    0.2620320000
C      5.3466340000   -0.8329470000    1.2602790000
C      6.0111470000   -1.9498060000    0.7495480000
C      6.2318720000   -1.9082400000   -0.6566220000
S      5.6247250000   -0.4416810000   -1.3378280000
N      6.5027270000   -3.1377150000    1.2770570000
C      7.0476110000   -3.8292510000    0.2063310000
C      6.8546330000   -3.1290160000   -0.9961120000
C      7.6962080000   -5.0942410000    0.0531800000
C      7.7810660000   -5.4496340000   -1.3359800000
S      7.3298880000   -4.0691150000   -2.3919430000
C      8.2879540000   -5.9159100000    1.0285030000
C      8.8195000000   -7.1321540000    0.6178940000
C      8.7516930000   -7.5955680000   -0.7381870000
C      8.2363150000   -6.7173510000   -1.7345030000
S      9.6370050000   -8.2188670000    1.7354200000
C      9.9040850000   -9.3318290000    0.4212470000
C      9.3556780000   -8.9065030000   -0.8167730000
C     10.5332200000  -10.5720470000    0.2162610000
C     10.3404610000  -10.8795780000   -1.1530880000
N      9.6121350000   -9.8778930000   -1.7799950000
S     11.4348610000  -11.7979850000    1.0483240000
C     11.5818570000  -12.7251020000   -0.4693520000
C     10.9276050000  -12.0828140000   -1.5409760000
O      8.3697310000   -5.5551190000    2.3422950000
O      8.2485950000   -7.1704360000   -3.0144440000
C      9.2524290000   -4.4587040000    2.6594830000
C     10.7101090000   -4.8790040000    2.6919300000
C      7.2948920000   -6.6851610000   -3.9696450000
C      7.0200020000   -7.7501570000   -5.0123230000
C      8.8700650000  -10.1890710000   -3.0011790000
C      7.6465270000  -11.0825660000   -2.7256710000
C      6.5571230000  -10.3308030000   -1.9169450000
C      6.4837620000  -10.7109380000   -0.4377990000
C      7.0984990000  -11.7019030000   -4.0237330000
C      6.1998600000  -12.9102470000   -3.7598060000
C      5.8635750000   -3.8218420000    2.4151580000
C      4.8817570000   -4.9181270000    1.9598500000
C      4.3034940000   -5.6581360000    3.1753150000
C      5.3140560000   -6.4902240000    3.9683670000
C      3.7947260000   -4.3515100000    1.0342880000
C      2.9617950000   -5.4038190000    0.3055400000
C      3.8220150000    5.2394000000    3.4743150000
S      3.4921310000    4.9470730000    5.1537730000
C      3.3216320000    3.2361020000    4.9158870000
C     14.4469740000  -16.3934690000    3.1314740000
S     15.3853890000  -17.8166870000    2.8011550000
C     15.1614410000  -17.6781770000    1.0862350000
H      4.7092560000    2.0729620000   -0.4957300000
H     12.2557170000  -14.1816200000   -1.7697650000
H      5.1222730000   -0.6678270000    2.3113740000
H     10.9357620000  -12.5013700000   -2.5470410000
H      8.9210140000   -4.1060760000    3.6478830000
H      9.0898680000   -3.6379020000    1.9423580000
H     10.8699850000   -5.6941040000    3.4130930000
H     11.3370680000   -4.0240410000    2.9914020000
H     11.0511000000   -5.2239460000    1.7039770000
H      7.6992740000   -5.7769320000   -4.4472500000
H      6.3635540000   -6.4128920000   -3.4500310000
H      7.9467890000   -8.0880680000   -5.5005340000
H      6.3596300000   -7.3328590000   -5.7882750000
H      6.5181400000   -8.6216510000   -4.5687580000
H      9.5697320000  -10.7045690000   -3.6773270000
H      8.5830710000   -9.2479360000   -3.4719460000
H      8.0104890000  -11.9243740000   -2.1099870000
H      5.5718300000  -10.5131910000   -2.3774810000
H      6.7237510000   -9.2448260000   -2.0072460000
H      6.2061430000  -11.7708040000   -0.3168660000
H      5.7337770000  -10.1059520000    0.0942820000
H      7.4467610000  -10.5603760000    0.0720740000
H      7.9395900000  -12.0156690000   -4.6659630000
H      6.5450740000  -10.9371600000   -4.5973130000
H      6.7622340000  -13.7081120000   -3.2467010000
H      5.7966300000  -13.3317950000   -4.6934890000
H      5.3437850000  -12.6487650000   -3.1182320000
H      5.3353050000   -3.0519230000    2.9960920000
H      6.6398360000   -4.2583240000    3.0514030000
H      5.4673180000   -5.6538020000    1.3797300000
H      3.5040550000   -6.3277250000    2.8201950000
H      3.8055570000   -4.9280840000    3.8400280000
H      5.8601900000   -7.1873630000    3.3116490000
H      4.8058470000   -7.0853470000    4.7432390000
H      6.0690460000   -5.8705640000    4.4754180000
H      4.2634640000   -3.7152200000    0.2678580000
H      3.1331340000   -3.6781330000    1.6035200000
H      3.6039160000   -6.0846890000   -0.2803720000
H      2.2623180000   -4.9166730000   -0.3916130000
H      2.3592410000   -6.0220020000    0.9900500000
H      4.0048540000    6.2457760000    3.1017600000
H      3.0829390000    2.5871720000    5.7553640000
H     14.2907730000  -16.0383930000    4.1488660000
H     15.6083890000  -18.4085650000    0.4164190000