97
BTP-4Cl.out: Geometry 28
C      4.4260350000    2.7864250000    0.9919810000
O      5.1852920000    2.0591660000    0.3729340000
C      3.4581750000    3.7263470000    0.3833850000
C      3.2261590000    3.9447880000   -0.9646510000
C      2.2566740000    4.8852520000   -1.3261970000
Cl     1.9421640000    5.1810420000   -3.0028010000
C      1.5481380000    5.5795310000   -0.3216560000
Cl     0.3436040000    6.7464710000   -0.7489140000
C      1.7940490000    5.3485460000    1.0382650000
C      2.7619890000    4.4079950000    1.3983350000
C      3.2491330000    3.9270200000    2.7172120000
C      2.7732880000    4.3844250000    3.9361080000
C      3.2366920000    3.8994060000    5.1974680000
N      3.5989780000    3.5090070000    6.2311610000
C      1.7603180000    5.3872750000    4.0427270000
N      0.9369740000    6.2017500000    4.1425860000
C      4.2759320000    2.9156140000    2.4592010000
C      4.9644500000    2.1789460000    3.4082270000
C      5.9413970000    1.1622570000    3.3378910000
S      6.7244770000    0.5477220000    1.8613580000
C      7.6760670000   -0.5350320000    2.8046940000
C      7.3880170000   -0.4587380000    4.1854910000
C      6.4158760000    0.5001540000    4.5073960000
C      5.8944960000    0.7450690000    5.8992030000
C      4.4880120000    0.1716770000    6.1373460000
S      8.3319420000   -1.6109630000    5.1472600000
C      9.1000960000   -2.1777670000    3.6821200000
C      8.6418020000   -1.5206520000    2.5316760000
N      9.2821290000   -2.0101900000    1.4010800000
C      9.5838320000   -1.0540680000    0.3209320000
C     10.9688420000   -0.4354910000    0.4825180000
C     10.1427690000   -3.0260490000    1.8376030000
C     10.0734120000   -3.1176750000    3.2602200000
C     10.9507950000   -3.9953760000    3.9775440000
N     11.0416790000   -4.1282150000    5.2930180000
S     12.2593830000   -5.2115050000    5.5847130000
N     12.6967830000   -5.5339190000    4.0193730000
C     11.9092580000   -4.8053540000    3.2400010000
C     11.8930300000   -4.7798680000    1.8055550000
C     10.9853510000   -3.9217330000    1.1042240000
N     11.0919330000   -4.1820790000   -0.2584540000
C     10.1861740000   -3.8145080000   -1.3466600000
C     10.8088480000   -2.8593060000   -2.3608960000
C     12.0617290000   -5.1525290000   -0.4271220000
C     12.5779270000   -5.5315600000    0.8252670000
S     13.7918560000   -6.7846960000    0.7160190000
C     13.5905610000   -6.7961560000   -1.0428110000
C     12.6233080000   -5.8749850000   -1.5001250000
S     12.4518840000   -5.9014790000   -3.2203190000
C     13.7114130000   -7.1565700000   -3.3436270000
C     14.2192840000   -7.5228360000   -2.0644410000
C     15.2482200000   -8.5854890000   -1.7878870000
C     14.6121470000   -9.9414450000   -1.4368590000
C     14.2081950000   -7.7315120000   -4.5359310000
C     13.9405880000   -7.5499770000   -5.8839120000
C     14.6052160000   -8.2315190000   -6.9972800000
C     15.5981020000   -9.1964350000   -6.9448480000
C     16.1751330000   -9.7801470000   -8.1144780000
N     16.6556720000  -10.2645370000   -9.0550020000
C     16.1458830000   -9.7014520000   -5.7264870000
N     16.6024820000  -10.1221410000   -4.7435500000
C     14.0244270000   -7.6964010000   -8.2565540000
C     14.2819280000   -7.9749150000   -9.6024400000
C     13.5587130000   -7.2849080000  -10.5855140000
Cl    13.8853960000   -7.6326970000  -12.2508970000
C     12.5833540000   -6.3242280000  -10.2396650000
Cl    11.7025390000   -5.4820590000  -11.4684770000
C     12.3243480000   -6.0479680000   -8.8929260000
C     13.0471830000   -6.7367860000   -7.9312700000
C     12.9488650000   -6.6097830000   -6.4569140000
O     12.1897860000   -5.8623690000   -5.8626930000
H      3.7864420000    3.3950740000   -1.7219620000
H      1.2163610000    5.9133100000    1.7645220000
H      4.7051290000    2.4009950000    4.4402570000
H      5.8827820000    1.8253700000    6.1163320000
H      6.5988310000    0.2969400000    6.6166490000
H      3.7477130000    0.6403090000    5.4743270000
H      4.1687140000    0.3665410000    7.1717870000
H      4.4654870000   -0.9144320000    5.9567170000
H      8.8114430000   -0.2748270000    0.3673430000
H      9.4700090000   -1.5307170000   -0.6554910000
H     11.7555760000   -1.2046090000    0.4396250000
H     11.0506350000    0.0820290000    1.4503840000
H     11.1606840000    0.2952490000   -0.3173450000
H      9.2749550000   -3.4052370000   -0.8951550000
H      9.8818650000   -4.7465090000   -1.8504070000
H     10.0636750000   -2.5762470000   -3.1193480000
H     11.6512970000   -3.3325950000   -2.8847340000
H     11.1843380000   -1.9458650000   -1.8799560000
H     15.8724700000   -8.2423560000   -0.9458440000
H     15.9297120000   -8.7190340000   -2.6394630000
H     13.9252060000   -9.8504310000   -0.5813190000
H     15.3920130000  -10.6726060000   -1.1790480000
H     14.0435300000  -10.3388970000   -2.2908830000
H     14.9810390000   -8.4631780000   -4.3136770000
H     15.0214560000   -8.7033210000   -9.9250620000
H     11.5740620000   -5.3102010000   -8.6062380000