92
IDIC.out: Geometry 18
C      2.8819120000    1.0845370000   -0.5999090000
C      2.8203710000   -0.3345170000   -0.7366610000
C      1.5846060000   -0.9648170000   -0.7597880000
C      0.4327040000   -0.1639300000   -0.6931050000
C      0.4925970000    1.2598180000   -0.6259640000
C      1.7283930000    1.8876220000   -0.5589640000
C     -0.9589740000   -0.5259770000   -0.5924830000
C     -1.7664520000    0.6118570000   -0.5014030000
C     -0.9165040000    1.8720460000   -0.5664480000
C      4.2762520000    1.4257130000   -0.4621500000
C      5.0797750000    0.2810690000   -0.5313890000
C      4.2245050000   -0.9586110000   -0.7453100000
S     -1.8394340000   -1.9811310000   -0.4266840000
C     -3.3523880000   -1.0683040000   -0.2120820000
C     -3.1183850000    0.3161430000   -0.3016060000
S      5.1754730000    2.8554650000   -0.1895600000
C      6.6920070000    1.9249290000   -0.1715730000
C      6.4422560000    0.5593300000   -0.3892100000
C     -1.1241180000    2.7559350000    0.6876100000
C     -1.2625180000    2.6480790000   -1.8731100000
C     -0.5448300000    3.9769560000   -2.1009720000
C     -0.9882410000    2.0235430000    2.0214890000
C      4.5735280000   -1.5839850000   -2.1296720000
C      4.3576960000   -1.9654390000    0.4290630000
C      3.8696210000   -2.8905920000   -2.4891200000
C      5.7461420000   -2.5711150000    0.6358790000
C      7.8678400000    2.6721220000    0.0924690000
C     -4.4903620000   -1.8627300000    0.0839210000
C     -5.8135640000   -1.5623280000    0.3309260000
C      9.1997300000    2.3230090000    0.1987740000
C      9.8098640000    0.9776200000   -0.0118240000
C     11.2758580000    1.1657250000    0.1165230000
C     11.5640560000    2.5131660000    0.4074690000
C     10.2865930000    3.2595780000    0.5177160000
C     -6.4768760000   -0.2297020000    0.2339600000
C     -7.9258020000   -0.4776230000    0.4409450000
C     -8.1502280000   -1.8482350000    0.6766260000
C     -6.8442490000   -2.5502500000    0.6793690000
C     12.2678450000    0.2028120000   -0.0199540000
C     13.5988450000    0.6056200000    0.1257500000
C     13.9031180000    1.9464430000    0.3986850000
C     12.9000950000    2.9116310000    0.5443210000
C     -8.9583120000    0.4513680000    0.4095300000
C    -10.2647360000   -0.0094280000    0.6012190000
C    -10.5058890000   -1.3732050000    0.8173640000
C     -9.4618830000   -2.3042890000    0.8621990000
O      9.2644100000   -0.0890440000   -0.2469690000
O     -5.9774720000    0.8625680000    0.0176530000
C     -6.6677560000   -3.8805390000    1.0189680000
C     10.1843710000    4.5848140000    0.9054360000
C      8.9485610000    5.2843720000    1.0827350000
C     11.3162520000    5.4039610000    1.2129310000
C     -5.3958810000   -4.5298110000    1.1127540000
C     -7.7480350000   -4.7532330000    1.3632260000
N      7.9693680000    5.8927690000    1.2359030000
N     12.1962700000    6.1149920000    1.4788260000
N     -8.5878820000   -5.5033790000    1.6507650000
N     -4.3866110000   -5.0997080000    1.2065350000
H      1.4958940000   -2.0520830000   -0.7954430000
H      1.8156470000    2.9691150000   -0.4375560000
H     -3.9375890000    1.0236660000   -0.1883490000
H      7.2680670000   -0.1461500000   -0.4251780000
H     -2.1252360000    3.2148390000    0.6142460000
H     -0.4068100000    3.5917670000    0.6504910000
H     -2.3515400000    2.8247920000   -1.8634490000
H     -1.0674570000    1.9724390000   -2.7220930000
H     -0.7408710000    4.6985680000   -1.2931980000
H     -0.9007740000    4.4368070000   -3.0362360000
H      0.5449000000    3.8514130000   -2.1916230000
H     -1.7521740000    1.2398020000    2.1357700000
H     -1.1050870000    2.7264660000    2.8604370000
H     -0.0028920000    1.5405100000    2.1189510000
H      5.6640570000   -1.7422220000   -2.1593270000
H      4.3575570000   -0.8231570000   -2.8974690000
H      3.6261720000   -2.7738420000    0.2681860000
H      4.0390460000   -1.4483790000    1.3493550000
H      4.0924380000   -3.6920930000   -1.7683140000
H      4.2102200000   -3.2404090000   -3.4761210000
H      2.7765310000   -2.7743870000   -2.5430620000
H      5.7196940000   -3.3247460000    1.4382950000
H      6.4846800000   -1.8112530000    0.9269870000
H      6.1209790000   -3.0729100000   -0.2694920000
H      7.6535950000    3.7281260000    0.2562410000
H     -4.2418120000   -2.9229530000    0.1421770000
H     11.9911180000   -0.8300030000   -0.2418860000
H     14.4065540000   -0.1221120000    0.0211980000
H     14.9468110000    2.2519610000    0.5046240000
H     13.1760790000    3.9399740000    0.7645970000
H     -8.7314680000    1.5046330000    0.2306420000
H    -11.1025990000    0.6907650000    0.5793050000
H    -11.5303880000   -1.7245160000    0.9606520000
H     -9.6880960000   -3.3529400000    1.0410810000