109
IDST-4F.out: Geometry 76
C     -1.8967310000   -1.1800750000    0.3968110000
C     -2.6171830000   -0.1614310000   -0.2400540000
C     -2.1753510000    1.1241360000    0.1378720000
C     -2.5436330000    2.5698580000   -0.1838860000
C     -1.5229550000    3.3293320000    0.6810630000
C     -0.7018360000    2.4192760000    1.4088050000
C     -1.1404080000    1.0916420000    1.0622590000
S     -0.6812230000   -0.5077020000    1.4962640000
C      0.3447640000    2.8517860000    2.2356840000
C      0.5892990000    4.2147190000    2.3178740000
C      1.6331680000    4.9445590000    3.1681960000
C      1.2859420000    6.3900090000    2.8578420000
C      0.2091050000    6.4572840000    1.9729090000
C     -0.2385400000    5.1324760000    1.6067260000
C     -1.2865470000    4.6949160000    0.7749120000
S     -0.2517080000    8.0763870000    1.6104670000
C      1.0329570000    8.6990060000    2.6554260000
C      1.7792120000    7.6508530000    3.2124520000
C     -2.3429500000    2.8969640000   -1.6852380000
C     -0.9186050000    2.6790770000   -2.1906880000
C     -4.0122410000    2.8134860000    0.2671370000
C     -4.5450080000    4.2395030000    0.1541730000
C      1.4338470000    4.6231510000    4.6730700000
C      0.0157350000    4.8683900000    5.1869990000
C      3.0919040000    4.6703890000    2.7023930000
C      3.5979250000    3.2332810000    2.7970630000
C      1.2686980000   10.0877450000    2.8523360000
C      0.4238230000   11.1683650000    2.7721110000
C     -1.0276410000   11.3023990000    2.8018210000
C     -1.3513000000   12.6672250000    2.3148160000
C     -0.1510300000   13.3988060000    2.1912390000
C      1.0061000000   12.5289560000    2.5335560000
C     -2.5745130000   13.3015240000    2.0596230000
C     -2.5482980000   14.6386020000    1.6709740000
C     -1.3420740000   15.3526470000    1.5455680000
C     -0.1253150000   14.7363180000    1.8126240000
O      2.1769410000   12.8487250000    2.5650400000
C     -1.9266740000   10.4358490000    3.4013420000
C     -3.3400290000   10.6362960000    3.3527820000
C     -1.5098330000    9.3317720000    4.2080510000
F     -3.6856620000   15.2776550000    1.4109510000
F     -1.3915940000   16.6265110000    1.1670530000
N     -4.4928140000   10.7751640000    3.2969320000
N     -1.1974390000    8.4652010000    4.9159740000
C     -0.8843370000   -6.3594960000    0.6615140000
C      0.3611550000   -6.7363920000    1.0999000000
C      1.6501040000   -6.0565800000    1.1337630000
C      2.4395890000   -6.6775850000    2.2239060000
C      1.7686600000   -7.8408520000    2.6593940000
C      0.4947130000   -7.9987990000    1.9002280000
C      3.6574150000   -6.3136280000    2.8125200000
C      4.1410520000   -7.1128860000    3.8455750000
C      3.4532880000   -8.2593240000    4.2833700000
C      2.2611620000   -8.6463080000    3.6813940000
O     -0.2940640000   -8.9171560000    1.9680510000
C      2.1327780000   -5.1727300000    0.1863670000
C      3.4172760000   -4.5568440000    0.2924450000
C      1.4151850000   -4.8904490000   -1.0177970000
F      5.2801980000   -6.8007960000    4.4574050000
F      3.9681670000   -8.9554970000    5.2924550000
N      4.4512260000   -4.0335170000    0.3815530000
N      0.8565180000   -4.6943160000   -2.0174780000
C     -1.9718760000   -2.6103620000    0.2605810000
S     -0.6629400000   -3.5817890000    0.8888790000
C     -1.4153960000   -5.0696260000    0.3740950000
C     -2.6436670000   -4.8022330000   -0.2302250000
C     -2.9577050000   -3.4274870000   -0.3283580000
S     -4.4308240000   -2.7708660000   -1.0430400000
C     -5.0109490000   -4.1514080000   -2.0966950000
C     -5.9951040000   -3.6018540000   -3.1280590000
C     -6.6030100000   -4.7043320000   -3.9926010000
H     -3.3985190000   -0.3684200000   -0.9692500000
H      0.9405530000    2.1296420000    2.7958500000
H     -1.8849640000    5.4175000000    0.2170760000
H      2.6187800000    7.8380710000    3.8831060000
H     -2.6375750000    3.9442340000   -1.8595460000
H     -3.0511590000    2.2825030000   -2.2662740000
H     -0.2026050000    3.3038890000   -1.6369360000
H     -0.8354150000    2.9441590000   -3.2562190000
H     -0.6047210000    1.6299050000   -2.0755070000
H     -4.1023530000    2.4739460000    1.3122920000
H     -4.6499140000    2.1373630000   -0.3272530000
H     -3.9853000000    4.9345060000    0.7952740000
H     -5.5953230000    4.2739260000    0.4829720000
H     -4.5109670000    4.6233620000   -0.8773750000
H      2.1570780000    5.2253720000    5.2481360000
H      1.7127840000    3.5706860000    4.8436190000
H     -0.2815320000    5.9244310000    5.0951830000
H     -0.0649600000    4.5858060000    6.2482990000
H     -0.7144170000    4.2625590000    4.6301680000
H      3.7491640000    5.3271580000    3.2971930000
H      3.1810100000    5.0167590000    1.6591250000
H      3.5575890000    2.8366970000    3.8234240000
H      4.6472170000    3.1842120000    2.4667460000
H      3.0254070000    2.5565500000    2.1479810000
H      2.3153790000   10.3618640000    3.0410990000
H     -3.5407350000   12.8084160000    2.1519990000
H      0.8130700000   15.2864350000    1.7266470000
H     -1.6167460000   -7.1771850000    0.6464780000
H      4.2309790000   -5.4364750000    2.5165120000
H      1.7307950000   -9.5394550000    4.0150000000
H     -3.2878810000   -5.6035960000   -0.5882660000
H     -5.4898410000   -4.9176290000   -1.4665220000
H     -4.1389170000   -4.6035050000   -2.5940710000
H     -5.4679920000   -2.8675470000   -3.7598760000
H     -6.7983660000   -3.0487470000   -2.6106800000
H     -5.8235250000   -5.2695710000   -4.5298910000
H     -7.2867300000   -4.2801670000   -4.7442330000
H     -7.1765790000   -5.4227880000   -3.3840100000