132
ITCC.out: Geometry 31
C      0.9286450000   -1.1929880000    0.5668190000
O      1.1583900000   -2.3432130000    0.8932590000
C     -0.3754120000   -0.5083020000    0.6271310000
C     -0.2866560000    0.8027190000    0.1849100000
C      1.1063310000    1.0790510000   -0.2025910000
C      1.5304740000    2.3080480000   -0.6751570000
C      0.6032830000    3.3819430000   -0.8613560000
N     -0.1626400000    4.2420370000   -1.0168120000
C      2.8818640000    2.6199700000   -1.0183170000
N      3.9760070000    2.8916820000   -1.3020580000
C      1.8739570000   -0.1601610000    0.0181910000
C      3.2102370000   -0.3211200000   -0.2828950000
C      4.1113210000   -1.4175990000   -0.1759580000
C      3.9753950000   -2.7249000000    0.3101450000
C      5.1562570000   -3.4614490000    0.1574830000
C      6.2237350000   -2.7466180000   -0.4467570000
S      5.7539170000   -1.1285560000   -0.8125770000
C      7.3720260000   -3.5430820000   -0.6349670000
C      8.7172530000   -3.4085500000   -1.3371240000
C      9.6999550000   -2.4967120000   -0.5899940000
C      9.4561960000   -2.0691170000    0.7197210000
C     10.3640800000   -1.2392350000    1.3810240000
C     11.5464270000   -0.8158380000    0.7606350000
C     12.5414180000    0.0454470000    1.5005080000
C     13.5100040000   -0.7831410000    2.3562130000
C     11.7907490000   -1.2541370000   -0.5496400000
C     10.8846250000   -2.0786140000   -1.2148270000
C      8.4235620000   -2.9079580000   -2.7594400000
C      8.0669110000   -3.7888240000   -3.7870020000
C      7.6304250000   -3.3029980000   -5.0221330000
C      7.5393550000   -1.9268930000   -5.2720400000
C      6.9745030000   -1.3860730000   -6.5634590000
C      5.5060360000   -0.9596140000   -6.4062180000
C      7.9153130000   -1.0511080000   -4.2442100000
C      8.3439830000   -1.5297180000   -3.0081610000
C      9.2141840000   -4.8692690000   -1.2647530000
C      8.2986100000   -5.6803690000   -0.5364990000
C      7.1720270000   -4.8413400000   -0.1894660000
S      5.5974140000   -5.1301090000    0.4986370000
C      8.5272040000   -7.0493210000   -0.3287010000
C      9.6657160000   -7.6092210000   -0.8856560000
C     10.1168130000   -9.0840170000   -0.8664130000
C     10.7121590000   -9.5530030000    0.4793670000
C     10.7407660000  -10.9165800000    0.8070150000
C     11.4903830000  -11.3764480000    1.8899620000
C     12.2529270000  -10.4996090000    2.6734330000
C     13.1210750000  -11.0237990000    3.7948430000
C     12.3524140000  -11.7994990000    4.8697200000
C     12.2003380000   -9.1350250000    2.3556150000
C     11.4454920000   -8.6677050000    1.2788390000
C      9.0022950000   -9.9946690000   -1.3782620000
C      8.9892400000  -10.4644870000   -2.6966920000
C      7.9624920000  -11.2960430000   -3.1471600000
C      6.9139900000  -11.6828470000   -2.3020830000
C      5.7884350000  -12.5463690000   -2.8205710000
C      4.7334540000  -11.7332970000   -3.5830410000
C      6.9256180000  -11.2020810000   -0.9844860000
C      7.9522810000  -10.3748130000   -0.5291750000
C     11.3251890000   -9.0027850000   -1.7825310000
C     11.5927360000   -7.6960010000   -2.1573000000
C     10.5655030000   -6.8069560000   -1.6497080000
C     10.3558680000   -5.4285690000   -1.8219350000
S     13.0987290000   -7.5085690000   -3.0218570000
C     13.3974660000   -9.2366040000   -2.8685680000
C     12.3475710000   -9.8809360000   -2.1758250000
S     12.6421720000  -11.5669270000   -1.9818170000
C     14.2070070000  -11.4140800000   -2.7906510000
C     14.4380180000  -10.1101590000   -3.2366380000
C     15.0517750000  -12.5473210000   -2.9871330000
C     15.0724980000  -13.7433860000   -2.3214600000
C     14.5015070000  -14.1909690000   -1.0481750000
C     14.2923990000  -13.4582100000    0.1048480000
C     13.7300790000  -14.0649030000    1.2703110000
N     13.2485750000  -14.5482200000    2.2115490000
C     14.6875920000  -12.0933650000    0.2614700000
N     15.0415150000  -11.0029110000    0.4494520000
C     14.4182660000  -15.6587120000   -1.1221520000
C     15.0983400000  -16.0948260000   -2.2552480000
C     15.6207470000  -14.9564060000   -3.0415190000
O     16.2763330000  -14.9613320000   -4.0603560000
S     -1.9570430000   -0.9408450000    1.1228550000
C     -2.5243540000    0.6596590000    0.7360610000
C     -1.5387850000    1.4864920000    0.2476940000
S     15.1192220000  -17.8042510000   -2.3908250000
C     14.2030480000  -17.9474830000   -0.9185210000
C     13.9031660000  -16.7338750000   -0.3409380000
H      3.6904680000    0.5606480000   -0.7095130000
H      3.0354350000   -3.0781290000    0.7276430000
H      8.5416050000   -2.3781470000    1.2278980000
H     10.1390860000   -0.8980640000    2.3953520000
H     11.9958430000    0.7532830000    2.1468720000
H     13.1134030000    0.6545570000    0.7807960000
H     12.9585400000   -1.4074010000    3.0771190000
H     14.1992690000   -0.1347530000    2.9209540000
H     14.1140490000   -1.4583490000    1.7285080000
H     12.6988730000   -0.9267620000   -1.0636630000
H     11.0849010000   -2.3734170000   -2.2464570000
H      8.1141430000   -4.8663660000   -3.6161790000
H      7.3447470000   -4.0102450000   -5.8055980000
H      7.0653960000   -2.1471140000   -7.3563550000
H      7.5727780000   -0.5205000000   -6.8936230000
H      4.8827240000   -1.8120210000   -6.0920740000
H      5.0963580000   -0.5581360000   -7.3470370000
H      5.4034250000   -0.1806100000   -5.6339280000
H      7.8588300000    0.0285800000   -4.4089160000
H      8.6125880000   -0.8194060000   -2.2253230000
H      7.8095220000   -7.6565850000    0.2244490000
H     10.1900760000  -11.6342810000    0.1979930000
H     11.5047810000  -12.4454680000    2.1122830000
H     13.6651730000  -10.1830840000    4.2552990000
H     13.8941180000  -11.6805750000    3.3589190000
H     11.5993540000  -11.1605740000    5.3588990000
H     13.0372300000  -12.1770600000    5.6450910000
H     11.8324750000  -12.6692550000    4.4400780000
H     12.7855800000   -8.4251160000    2.9465040000
H     11.4599700000   -7.6030020000    1.0348270000
H      9.7947340000  -10.1871910000   -3.3787700000
H      7.9838600000  -11.6641530000   -4.1764810000
H      5.3114990000  -13.0793500000   -1.9816390000
H      6.2039000000  -13.3212750000   -3.4868710000
H      4.2458960000  -10.9994480000   -2.9216580000
H      3.9525400000  -12.3860560000   -4.0042480000
H      5.1956570000  -11.1744190000   -4.4121580000
H      6.1253520000  -11.4937970000   -0.2983980000
H      7.9574150000  -10.0475920000    0.5121060000
H     11.0549340000   -4.8261540000   -2.4041570000
H     15.3465860000   -9.8265800000   -3.7678590000
H     15.7154540000  -12.5087450000   -3.8603570000
H     -3.5720130000    0.9134380000    0.8955150000
H     -1.7191590000    2.5158010000   -0.0523910000
H     13.9275570000  -18.9347700000   -0.5489980000
H     13.3450070000  -16.6308240000    0.5871020000