126
ITIC-Th.out: Geometry 111
C     -3.9985380000    0.4111880000    0.5899800000
O     -5.1298520000    0.7717720000    0.8418270000
C     -2.7267040000    1.0015890000    1.0898310000
C     -2.5573860000    2.0475910000    1.9895420000
C     -1.2537570000    2.4042300000    2.3503890000
C     -0.1583730000    1.7196570000    1.8050670000
C     -0.3284110000    0.6734580000    0.8887910000
C     -1.6310430000    0.3073680000    0.5294700000
C     -2.1503960000   -0.7128020000   -0.4181380000
C     -1.4275940000   -1.3003170000   -1.4422050000
C     -2.0548050000   -1.9527440000   -2.5492680000
N     -2.5402890000   -2.4452870000   -3.4832520000
C     -0.0048680000   -1.2015240000   -1.5329410000
N      1.1541340000   -1.1459720000   -1.6015750000
C     -3.5906090000   -0.7858720000   -0.2197200000
C     -4.5382270000   -1.7582830000   -0.4277090000
C     -4.4552330000   -3.1525590000   -0.6842500000
C     -5.5717320000   -3.9805940000   -0.8670190000
C     -5.2186180000   -5.3328860000   -0.9654370000
C     -3.8258130000   -5.5619710000   -0.8397010000
S     -2.9583420000   -4.0909860000   -0.5873860000
C     -3.4884980000   -6.9218870000   -0.9536670000
C     -2.2301320000   -7.7722510000   -0.8474200000
C     -1.2139810000   -7.3938340000   -1.9058870000
C     -1.3346240000   -6.4956220000   -2.9386970000
C     -0.1852270000   -6.4624340000   -3.7878180000
C      0.8038740000   -7.3373350000   -3.4099650000
C      2.1077980000   -7.6367880000   -4.0925250000
C      3.3015310000   -7.8127150000   -3.1506690000
S      0.3379150000   -8.1911260000   -1.9602810000
C     -1.6921290000   -7.6513050000    0.5724730000
C     -2.0243940000   -8.3963520000    1.6773960000
C     -1.4854760000   -7.8639200000    2.8879870000
C     -0.7493160000   -6.7178350000    2.7086250000
C     -0.0409990000   -5.8929580000    3.7433550000
C      1.4399080000   -5.6340020000    3.4448650000
S     -0.6974030000   -6.2876440000    1.0158840000
C     -2.8270050000   -9.1816080000   -1.0557970000
C     -4.2434970000   -9.1181100000   -1.1756380000
C     -4.6100440000   -7.7191490000   -1.1300390000
S     -6.1083790000   -6.8332120000   -1.1894860000
C     -5.0258650000  -10.2824620000   -1.2359310000
C     -4.3681230000  -11.5002580000   -1.1767870000
C     -4.9852580000  -12.9100320000   -1.0311300000
C     -5.6414930000  -13.0033380000    0.3411770000
C     -5.0806760000  -13.4419630000    1.5152130000
C     -5.9238780000  -13.2396190000    2.6490720000
C     -7.1226460000  -12.6430590000    2.3452090000
C     -8.2429090000  -12.2781110000    3.2728780000
C     -8.5891040000  -10.7834650000    3.2872940000
S     -7.2345610000  -12.3408060000    0.6253770000
C     -5.9271500000  -13.3079930000   -2.1482190000
C     -6.8797200000  -14.2975850000   -2.1328270000
C     -7.5052310000  -14.4880210000   -3.4030910000
C     -7.0245120000  -13.6527960000   -4.3833950000
C     -7.4536600000  -13.5447840000   -5.8185110000
C     -7.9230930000  -12.1417660000   -6.2259590000
S     -5.7847800000  -12.6067000000   -3.7365540000
C     -3.7247850000  -13.7585840000   -1.0204760000
C     -2.5876430000  -12.9652550000   -1.0408990000
C     -2.9467490000  -11.5640080000   -1.1159110000
C     -2.1662920000  -10.3996050000   -1.0507940000
S     -1.1060670000  -13.8556500000   -0.8178080000
C     -2.0323310000  -15.3408930000   -0.6490130000
C     -3.4193530000  -15.1101110000   -0.7968440000
S     -4.3388110000  -16.5484960000   -0.5302250000
C     -2.8654140000  -17.4491450000   -0.1475520000
C     -1.7187120000  -16.6698630000   -0.3151740000
C     -2.8908760000  -18.8011480000    0.3040290000
C     -3.8836490000  -19.5013540000    0.9376720000
C     -5.1215760000  -19.1084120000    1.6074420000
C     -5.3515040000  -17.9272910000    2.2898810000
C     -6.6027250000  -17.6109770000    2.9048030000
N     -7.6158360000  -17.3119660000    3.3901570000
C     -4.3211120000  -16.9653630000    2.5295620000
N     -3.4946400000  -16.1932480000    2.7954470000
C     -5.9806060000  -20.3157030000    1.6724160000
C     -7.3130130000  -20.4929960000    2.0624570000
C     -7.8309530000  -21.7933670000    2.0901320000
C     -7.0446210000  -22.9051350000    1.7560550000
C     -5.7133540000  -22.7343200000    1.3640930000
C     -5.2045420000  -21.4418220000    1.3171390000
C     -3.8452890000  -21.0013520000    0.9030120000
O     -2.9150030000  -21.6981660000    0.5557670000
H     -3.4301680000    2.5625110000    2.3953060000
H     -1.0815370000    3.2184570000    3.0581360000
H      0.8521320000    2.0084970000    2.1039470000
H      0.5411420000    0.1577440000    0.4860870000
H     -5.5571710000   -1.4036060000   -0.2236390000
H     -6.5858040000   -3.5841040000   -0.9165150000
H     -2.2146530000   -5.8727770000   -3.0977080000
H     -0.0994930000   -5.8112590000   -4.6589710000
H      2.3055990000   -6.8223310000   -4.8079970000
H      1.9907760000   -8.5529350000   -4.7012040000
H      3.4845030000   -6.9010900000   -2.5611370000
H      4.2136210000   -8.0486990000   -3.7205570000
H      3.1323590000   -8.6371320000   -2.4392310000
H     -2.6413430000   -9.2934360000    1.6254320000
H     -1.6372010000   -8.3191300000    3.8682830000
H     -0.1474390000   -6.4169900000    4.7070590000
H     -0.5615370000   -4.9258960000    3.8633880000
H      1.9913390000   -6.5800010000    3.3322690000
H      1.9086210000   -5.0540320000    4.2549320000
H      1.5665220000   -5.0627200000    2.5113650000
H     -6.1151870000  -10.2296870000   -1.2816440000
H     -4.0941300000  -13.8956060000    1.5853550000
H     -5.6471180000  -13.5456570000    3.6592960000
H     -7.9464120000  -12.6071900000    4.2817190000
H     -9.1447010000  -12.8599070000    3.0133170000
H     -7.7151340000  -10.1783140000    3.5741150000
H     -9.3993510000  -10.5735780000    4.0025420000
H     -8.9221340000  -10.4395940000    2.2948890000
H     -7.1329840000  -14.8597920000   -1.2339170000
H     -8.2969050000  -15.2162780000   -3.5875870000
H     -8.2631470000  -14.2755060000   -5.9768250000
H     -6.6271140000  -13.8609410000   -6.4805540000
H     -8.7321730000  -11.7903220000   -5.5676330000
H     -8.2963650000  -12.1370570000   -7.2621840000
H     -7.1001670000  -11.4125370000   -6.1605660000
H     -1.0802250000  -10.4553190000   -0.9610630000
H     -0.7180580000  -17.0574400000   -0.1219690000
H     -2.0049280000  -19.4030350000    0.0613930000
H     -7.9455660000  -19.6516440000    2.3392920000
H     -8.8696780000  -21.9438910000    2.3923230000
H     -7.4798560000  -23.9062230000    1.8037620000
H     -5.0749750000  -23.5776870000    1.0948170000