186
NIBT.out: Geometry 61
C      2.7802570000    1.5306150000    1.3035540000
C      2.9540010000    0.1592420000    1.6328430000
C      3.0771520000   -0.2395650000    2.9606830000
C      3.0208510000    0.7530470000    3.9554210000
C      2.7624010000    2.1117170000    3.6110180000
C      2.6553510000    2.5137160000    2.2919460000
C      2.8373340000    1.6441390000   -0.1349070000
C      2.9520510000    0.3982060000   -0.7305880000
C      2.9995800000   -0.6978070000    0.3500920000
S      3.0945890000    2.9433420000   -1.2260540000
C      3.3315370000    1.8049980000   -2.5597140000
C      3.2045640000    0.4851820000   -2.1163010000
C      3.2289310000    0.7256080000    5.3960650000
C      3.1076020000    2.0052020000    5.9268440000
C      2.6463270000    2.9914030000    4.8569350000
S      3.6067760000   -0.4483540000    6.6077160000
C      3.6659380000    0.8111990000    7.8508260000
C      3.3604640000    2.0615380000    7.3033670000
C      3.7229920000    2.2598870000   -3.8888020000
C      1.7780470000   -1.6189790000    0.3783000000
C      4.3044980000   -1.4739050000    0.1692850000
C      3.4990850000    4.2445300000    4.6865030000
C      1.1720860000    3.3247560000    5.1571020000
C      3.9728710000    0.5477730000    9.2420730000
C      4.5231630000    3.4504910000   -4.0836340000
C      4.9918430000    3.8445490000   -5.4046150000
C      4.6129710000    3.1055110000   -6.5790170000
C      3.9015030000    1.9332430000   -6.3353510000
C      3.4607600000    1.5317400000   -5.0483400000
C      4.1766150000   -0.7789620000    9.7683470000
C      4.4669230000   -1.0075300000   11.1818360000
C      4.6060970000    0.0986980000   12.0882000000
C      4.3560970000    1.3577860000   11.5404660000
C      4.0667820000    1.5791580000   10.1798990000
N      4.9943660000    4.2364860000   -3.1152000000
S      5.9664950000    5.3540340000   -3.8147960000
N      5.8285530000    4.8827990000   -5.3758200000
N      4.0702670000   -1.9080070000    9.0653140000
S      4.2810660000   -3.1514870000   10.1175200000
N      4.5152030000   -2.3008350000   11.4983580000
C      5.0306150000    3.5097650000   -7.9145590000
C      5.1993420000    4.7717030000   -8.4020810000
C      4.8592560000    0.0011920000   13.5140590000
C      5.6036290000   -0.8657830000   14.2455370000
C      4.8191910000    6.0964670000   -7.8926360000
C      5.5070830000    7.0567010000   -8.6848320000
C      6.2459800000    6.4949460000   -9.7431910000
C      6.0135720000    5.0050490000   -9.6791270000
C      5.7073750000   -0.8280320000   15.7163040000
C      6.6184090000   -1.8464550000   16.1021470000
C      7.1595680000   -2.5499010000   15.0109190000
C      6.5836990000   -1.9266280000   13.7571730000
C      3.9642950000    6.5786450000   -6.9052920000
C      3.8871950000    7.9723210000   -6.6606970000
C      4.6421940000    8.8948740000   -7.3852550000
C      5.4614670000    8.4348100000   -8.4404440000
C      6.2535330000    9.2796940000   -9.2560280000
C      6.9989100000    8.7247090000  -10.3002660000
C      6.9919850000    7.3269650000  -10.5662930000
C      4.6325490000   10.3388990000   -7.0778130000
N      5.5057760000   11.1485210000   -7.8406990000
C      6.2912980000   10.7369920000   -8.9332530000
C      5.6264400000   12.5555090000   -7.4299030000
C      6.5004050000   12.7738470000   -6.1774180000
C      7.8831730000   12.1284170000   -6.3128820000
C      6.6057250000   14.2793030000   -5.9063330000
C      8.0598100000   -3.5787460000   15.2524550000
C      8.4032250000   -3.8868360000   16.5983380000
C      7.8720020000   -3.1714140000   17.6761230000
C      6.9548640000   -2.1227020000   17.4324960000
C      6.3735190000   -1.3254610000   18.4461570000
C      5.4820210000   -0.3160850000   18.0801310000
C      5.1359300000   -0.0594350000   16.7263690000
C      6.7167610000   -1.6094950000   19.8594780000
N      7.6343790000   -2.6640200000   20.0782040000
C      8.2256970000   -3.4792630000   19.0908870000
C      7.9561370000   -2.9935290000   21.4778050000
C      9.3152400000   -2.4722390000   21.9683860000
C      9.4348080000   -0.9528150000   21.8473910000
C      9.5277900000   -2.9383430000   23.4134340000
C      5.4756560000   -1.1340140000    0.8515710000
C      6.6880850000   -1.7564000000    0.5363350000
C      6.7728730000   -2.7222980000   -0.4746820000
C      5.5884640000   -3.0688600000   -1.1454490000
C      4.3779760000   -2.4603300000   -0.8276510000
C      1.8447210000   -2.8394590000    1.0574150000
C      0.7114730000   -3.6365990000    1.2015260000
C     -0.5267830000   -3.2522220000    0.6714510000
C     -0.5866410000   -2.0322990000   -0.0183680000
C      0.5459250000   -1.2287000000   -0.1619930000
C      4.8433830000    4.2764040000    5.0742510000
C      5.6282730000    5.4052870000    4.8281590000
C      5.1020740000    6.5320110000    4.1817800000
C      3.7545100000    6.4922110000    3.7932590000
C      2.9660640000    5.3704390000    4.0420800000
C      0.1163360000    2.6880880000    4.4994020000
C     -1.2100610000    2.9603170000    4.8496390000
C     -1.5252280000    3.8672490000    5.8666170000
C     -0.4587370000    4.4993170000    6.5289790000
C      0.8626010000    4.2337170000    6.1815020000
O      3.9390350000   10.8249180000   -6.2031240000
O      6.9891810000   11.5359430000   -9.5324160000
O      6.4158930000    4.1556260000  -10.4444610000
O      6.9219380000   -2.1458570000   12.6141520000
O      6.2597970000   -0.9750160000   20.7930170000
O      8.9896770000   -4.3761580000   19.4030210000
C     -1.7323590000   -4.1517160000    0.8272180000
C      8.0890030000   -3.3682740000   -0.8465180000
C     -3.0503130000   -3.4279300000    1.0985430000
C      8.0563700000   -4.8987850000   -0.8428800000
C      5.9658370000    7.7264920000    3.8524550000
C      6.5727610000    7.6345330000    2.4436450000
C     -2.9584150000    4.1792540000    6.2321730000
C     -3.3438050000    5.6433610000    5.9930340000
H      3.2520960000   -1.2868620000    3.2225880000
H      2.4991200000    3.5619400000    2.0288110000
H      3.3907020000   -0.3676750000   -2.7676610000
H      3.3234310000    2.9774340000    7.8894220000
H      3.6274980000    1.3075320000   -7.1884730000
H      2.8728800000    0.6162180000   -4.9671780000
H      4.3994480000    2.2291310000   12.1994700000
H      3.9087550000    2.6091060000    9.8606850000
H      5.2895860000    2.7060590000   -8.6147210000
H      4.3832030000    0.8041430000   14.0908930000
H      3.3720780000    5.8992200000   -6.2873270000
H      3.2368130000    8.3546900000   -5.8704910000
H      7.6018760000    9.3995250000  -10.9091390000
H      7.5690840000    6.9185320000  -11.3985910000
H      4.6158650000   12.9386870000   -7.2433040000
H      6.0583360000   13.0887310000   -8.2863270000
H      5.9778890000   12.3037450000   -5.3293000000
H      8.4197370000   12.5147160000   -7.1957990000
H      7.8125370000   11.0346640000   -6.4177320000
H      8.4997470000   12.3344250000   -5.4225970000
H      7.1341940000   14.7923290000   -6.7267170000
H      7.1669980000   14.4774460000   -4.9784230000
H      5.6109150000   14.7424620000   -5.8041000000
H      8.4981090000   -4.1431100000   14.4281400000
H      9.1074770000   -4.6920300000   16.8219690000
H      5.0407430000    0.2852730000   18.8763340000
H      4.4244680000    0.7393200000   16.4998140000
H      7.9482530000   -4.0869400000   21.5610710000
H      7.1505530000   -2.5718800000   22.0904360000
H     10.0885900000   -2.9431940000   21.3401240000
H      8.6475130000   -0.4452060000   22.4246910000
H      9.3453950000   -0.6175820000   20.8031820000
H     10.4107600000   -0.6095150000   22.2243170000
H      8.7526120000   -2.5246070000   24.0810180000
H     10.5044740000   -2.6093210000   23.7971860000
H      9.4858240000   -4.0375110000   23.4926670000
H      5.4476000000   -0.3654670000    1.6282880000
H      7.5910560000   -1.4672880000    1.0807820000
H      5.6153080000   -3.8221650000   -1.9365800000
H      3.4749570000   -2.7483060000   -1.3659120000
H      2.7953660000   -3.1735340000    1.4816760000
H      0.7899380000   -4.5835390000    1.7421780000
H     -1.5290020000   -1.6955280000   -0.4556250000
H      0.4703660000   -0.2827600000   -0.6966200000
H      5.2820310000    3.4119200000    5.5749640000
H      6.6727330000    5.4112160000    5.1522990000
H      3.3148580000    7.3553410000    3.2851710000
H      1.9179240000    5.3714660000    3.7367440000
H      0.3236330000    1.9714880000    3.7036060000
H     -2.0153720000    2.4511220000    4.3140070000
H     -0.6693650000    5.2133800000    7.3297450000
H      1.6694510000    4.7459520000    6.7085250000
H     -1.5287850000   -4.8672790000    1.6417300000
H     -1.8427630000   -4.7677930000   -0.0846740000
H      8.8705980000   -3.0104170000   -0.1576850000
H      8.3886250000   -3.0159080000   -1.8501020000
H     -2.9697060000   -2.7671400000    1.9757130000
H     -3.8575580000   -4.1528960000    1.2870790000
H     -3.3600390000   -2.8065960000    0.2443230000
H      7.7716610000   -5.2885510000    0.1474930000
H      9.0408860000   -5.3149710000   -1.1086830000
H      7.3313260000   -5.2923880000   -1.5713300000
H      6.7764990000    7.8151920000    4.5944560000
H      5.3619390000    8.6457960000    3.9364510000
H      7.2100620000    6.7410090000    2.3475290000
H      7.1883460000    8.5180670000    2.2091650000
H      5.7808200000    7.5566520000    1.6806920000
H     -3.1247530000    3.9265990000    7.2950580000
H     -3.6278830000    3.5214220000    5.6560130000
H     -2.7113650000    6.3257010000    6.5817000000
H     -4.3901750000    5.8314040000    6.2814430000
H     -3.2221060000    5.9152390000    4.9323000000