116
NITV.out: Geometry 179
C     -0.4675630000   -1.9679360000   -0.0236580000
C      5.0074760000    4.5740530000   -0.0286760000
C     -0.9669770000   -3.3032530000   -0.0348880000
C     -0.4182960000   -4.5490270000   -0.1118320000
C      5.4015690000    5.9481100000   -0.0300470000
C      4.6993510000    7.1221820000   -0.0531640000
C      0.9327520000   -5.1225470000   -0.1711130000
C      0.7640720000   -6.5317570000   -0.3393840000
C     -0.5786200000   -6.9453440000   -0.3755660000
C     -1.4041490000   -5.7082570000   -0.2111350000
C      5.2867000000    8.4688460000   -0.1383940000
C      4.2042180000    9.3891060000   -0.1812220000
C      2.9461390000    8.7699050000   -0.1167590000
C      3.1999980000    7.2947880000   -0.0368260000
C      2.2448380000   -4.6587540000   -0.0949890000
C      3.3292700000   -5.5699650000   -0.1952990000
C      3.1436800000   -6.9352010000   -0.3875160000
C      1.8231340000   -7.4350570000   -0.4646320000
C      1.5092920000   -8.7976500000   -0.6666050000
C      0.1764850000   -9.2091950000   -0.7012620000
C     -0.8862970000   -8.2848130000   -0.5495500000
C      4.2711680000   -7.8849400000   -0.5119100000
N      3.9274830000   -9.2301050000   -0.7663120000
C      2.6242080000   -9.7568900000   -0.8694210000
C      5.0488590000  -10.1636840000   -0.9402820000
C      5.6658710000  -10.6642970000    0.3763650000
C      4.6310160000  -11.3338520000    1.2839360000
C      6.8255050000  -11.6068170000    0.0434840000
C      1.7977360000    9.5437900000   -0.1608980000
C      1.9353930000   10.9500510000   -0.2823340000
C      3.1887230000   11.5581650000   -0.3637520000
C      4.3596060000   10.7700010000   -0.3106170000
C      5.6716830000   11.2876050000   -0.4049790000
C      6.7468300000   10.4009980000   -0.3483580000
C      6.5717790000    8.9970900000   -0.2141960000
C      5.8452930000   12.7444250000   -0.6011580000
N      4.6548000000   13.5131970000   -0.6339520000
C      3.3388100000   13.0241870000   -0.5377770000
C      4.7784430000   14.9620250000   -0.8535180000
C      4.5178730000   15.8137640000    0.3983530000
C      5.5450510000   15.5473210000    1.4988100000
C      4.4892150000   17.2910190000   -0.0038280000
O      5.4383560000   -7.5504660000   -0.4177240000
O      2.4327650000  -10.9321770000   -1.1177370000
O     -2.6136500000   -5.6232510000   -0.1790560000
O      2.3542160000    6.4220420000    0.0206680000
O      6.9353610000   13.2657350000   -0.7408450000
O      2.3841930000   13.7767380000   -0.6083340000
C     -1.2964880000   -0.8495720000    0.0495730000
C     -0.6313590000    0.3920060000   -0.0012670000
C      0.7571450000    0.2326990000   -0.1149630000
S      1.2012390000   -1.4572800000   -0.1666050000
C      5.9400910000    3.5314730000   -0.0410500000
C      5.3895970000    2.2367320000   -0.1028210000
C      3.9872870000    2.2839230000   -0.1340330000
S      3.3817940000    3.9211720000   -0.0835920000
C      1.7250520000    1.2855290000   -0.1532530000
C      3.0812690000    1.1703660000   -0.1739170000
C      6.2264730000    0.9866900000   -0.1084050000
C      6.6326560000    0.4701150000    1.2917880000
C      5.4243520000   -0.0021660000    2.1038620000
C      7.6838720000   -0.6336390000    1.1510320000
C     -1.3532040000    1.7079650000    0.0875230000
C     -1.6390990000    2.1947260000    1.5273430000
C     -0.3552520000    2.5203580000    2.2932820000
C     -2.5814850000    3.3996770000    1.4839680000
H     -2.0641430000   -3.3428770000    0.0010070000
H      6.4928680000    6.0571160000   -0.0348000000
H      2.4718400000   -3.6053110000    0.0544720000
H      4.3543960000   -5.2000760000   -0.1244350000
H     -0.0264530000  -10.2699310000   -0.8603870000
H     -1.9250640000   -8.6201530000   -0.5774840000
H      5.8175360000   -9.6418570000   -1.5245020000
H      4.6624000000  -11.0121210000   -1.5179680000
H      6.0797210000   -9.7856360000    0.9000620000
H      4.1402430000  -12.1784270000    0.7747300000
H      3.8425170000  -10.6274130000    1.5862950000
H      5.1043950000  -11.7129540000    2.2034630000
H      6.4686300000  -12.4860660000   -0.5192750000
H      7.3161320000  -11.9724050000    0.9591500000
H      7.5896380000  -11.1021590000   -0.5701330000
H      0.8095000000    9.0821680000   -0.1112850000
H      1.0537670000   11.5920190000   -0.3282500000
H      7.7533330000   10.8175770000   -0.4240350000
H      7.4554410000    8.3556260000   -0.1853070000
H      4.0536600000   15.2340770000   -1.6318660000
H      5.7936420000   15.1389460000   -1.2292520000
H      3.5169920000   15.5452010000    0.7737040000
H      6.5655510000   15.7832460000    1.1540390000
H      5.5371440000   14.4929820000    1.8167090000
H      5.3321370000   16.1607920000    2.3885530000
H      5.4653460000   17.6123630000   -0.4067690000
H      4.2553220000   17.9315510000    0.8604880000
H      3.7288030000   17.4829670000   -0.7773780000
H     -2.3806820000   -0.9474420000    0.1318660000
H      7.0152310000    3.7238760000   -0.0204380000
H      1.2973930000    2.2898090000   -0.1284270000
H      3.5369860000    0.1777560000   -0.1927730000
H      7.1431970000    1.1920930000   -0.6845000000
H      5.7062560000    0.1763830000   -0.6458660000
H      7.0947640000    1.3159510000    1.8334350000
H      4.9090540000   -0.8357610000    1.5964050000
H      4.6907110000    0.8043120000    2.2556610000
H      5.7354810000   -0.3659300000    3.0955610000
H      7.2830690000   -1.4888620000    0.5810680000
H      8.0089790000   -1.0109300000    2.1332920000
H      8.5756700000   -0.2670780000    0.6172670000
H     -2.3130670000    1.6052900000   -0.4430480000
H     -0.7942930000    2.4927330000   -0.4474300000
H     -2.1539350000    1.3718670000    2.0569520000
H      0.2013830000    3.3366630000    1.8021220000
H      0.3133380000    1.6484990000    2.3632300000
H     -0.5849810000    2.8514960000    3.3184660000
H     -2.1177010000    4.2387620000    0.9382830000
H     -2.8272790000    3.7558090000    2.4964960000
H     -3.5259150000    3.1484350000    0.9748100000