122
SNBDT1-F.out: Geometry 170
C     -3.0294670000   -0.8109110000    0.1849080000
C     -1.9740660000   -0.2153310000   -0.5314750000
C     -0.6845800000   -0.6924880000   -0.3249800000
C     -0.3628960000   -1.7272610000    0.6167240000
C     -1.4166530000   -2.2515750000    1.4181000000
C     -2.7227640000   -1.7707060000    1.2150040000
S      0.6995310000    0.0139100000   -1.1520930000
C      1.7507320000   -1.0290130000   -0.2427680000
C      1.0757850000   -1.9182440000    0.6352240000
C      3.1297790000   -1.2251800000   -0.0888190000
C      3.2760220000   -2.2475060000    0.8793080000
N      2.0310220000   -2.6698280000    1.3145870000
S      4.6600550000   -0.6574510000   -0.6605700000
C      5.5051270000   -1.8124290000    0.3936030000
C      4.6085720000   -2.5931360000    1.1388550000
S     -4.1315840000   -2.0621460000    2.2799450000
C     -5.1103620000   -0.9765120000    1.3271830000
C     -4.4250030000   -0.4659430000    0.2057110000
C     -6.3793720000   -0.3616410000    1.3590870000
C     -6.4350720000    0.4796980000    0.2183270000
N     -5.2619290000    0.3844910000   -0.5075010000
S     -7.8132420000   -0.1987950000    2.3185890000
C     -8.4513600000    1.0310980000    1.2046070000
C     -7.5953650000    1.2520450000    0.1249430000
O     -1.0571190000   -3.1284560000    2.3939240000
O     -2.1655180000    0.8664480000   -1.3459100000
C     -2.4874750000    2.1006710000   -0.6580540000
C     -1.2684040000    2.8893880000   -0.1884930000
C     -0.4480380000    3.4136000000   -1.3687900000
C     -1.7479920000    4.0270550000    0.7208690000
C     -1.9410100000   -4.1557690000    2.8474680000
C     -1.1658970000   -5.1358680000    3.7234580000
C     -0.5290870000   -4.4319390000    4.9256190000
C     -2.0909620000   -6.2731620000    4.1666140000
C     -5.1897710000    0.7663680000   -1.9154160000
C     -5.7293220000   -0.2913080000   -2.8968990000
C      1.9091530000   -3.8628520000    2.1407030000
C      2.2891720000   -5.1507250000    1.3869490000
C     -7.1691490000   -0.7288360000   -2.6167680000
C     -5.5951240000    0.2578730000   -4.3205750000
C      2.5626310000   -6.2838150000    2.3793070000
C      1.2290440000   -5.5383410000    0.3546550000
C      6.9036580000   -2.0430700000    0.3582910000
C      7.9510740000   -1.3870220000   -0.2465070000
C      9.1712390000   -2.1851660000   -0.5860150000
C      9.9273050000   -1.3557090000   -1.5687750000
C      9.2653440000   -0.1216880000   -1.7529130000
C      8.1198060000   -0.0576750000   -0.8124470000
C     11.0856740000   -1.6934420000   -2.2546650000
C     11.5681220000   -0.7592050000   -3.1714130000
C     10.9282700000    0.4640160000   -3.3945170000
C      9.7749320000    0.7983620000   -2.6785640000
C     -9.7038050000    1.6606030000    1.4475460000
C    -10.1488550000    2.8693270000    0.9615850000
C    -11.6253420000    3.1167710000    0.8632430000
C    -11.7726600000    4.3017980000   -0.0341000000
C    -10.4941980000    4.8014930000   -0.3633150000
C     -9.4699240000    4.0205690000    0.3713890000
C    -12.9443650000    4.8588220000   -0.5320830000
C    -12.8080230000    5.9384110000   -1.4073870000
C    -11.5560690000    6.4470690000   -1.7684440000
C    -10.3891420000    5.8889540000   -1.2416040000
O    -12.5162780000    2.4582580000    1.3573510000
F    -13.8961630000    6.5113150000   -1.9295440000
C     -8.1768290000    4.4544580000    0.6142170000
C     -7.6327890000    5.6337310000    0.0163370000
C     -7.2862040000    3.8265000000    1.5385090000
N     -7.1570220000    6.5743360000   -0.4738900000
N     -6.5232100000    3.3777250000    2.2916700000
O      9.4503990000   -3.3028770000   -0.2025110000
F     12.6749560000   -1.0376360000   -3.8653230000
C      7.5081180000    1.1031790000   -0.3704130000
C      7.7270300000    2.3700410000   -0.9940860000
C      6.7302890000    1.1374710000    0.8280750000
N      6.1449660000    1.1865550000    1.8306090000
N      7.8868240000    3.3968440000   -1.5154220000
H      4.9495840000   -3.3682740000    1.8246170000
H     -7.8307260000    1.9477340000   -0.6775470000
H     -3.1506750000    1.8770060000    0.1912860000
H     -3.0602680000    2.6981930000   -1.3845100000
H     -0.6384200000    2.2084940000    0.4099320000
H     -1.0265720000    4.1603120000   -1.9390960000
H     -0.1691670000    2.6031490000   -2.0567010000
H      0.4769280000    3.8987570000   -1.0214290000
H     -2.4224720000    4.7100530000    0.1765660000
H     -0.8983120000    4.6229480000    1.0868370000
H     -2.2963980000    3.6429150000    1.5956470000
H     -2.3871040000   -4.6643900000    1.9754870000
H     -2.7569600000   -3.7218700000    3.4484000000
H     -0.3662060000   -5.5734990000    3.1027880000
H     -1.3085860000   -4.0063140000    5.5796480000
H      0.1320170000   -3.6097210000    4.6169510000
H      0.0622000000   -5.1410380000    5.5264660000
H     -2.9097470000   -5.8953150000    4.8015680000
H     -1.5310260000   -7.0155670000    4.7562640000
H     -2.5412940000   -6.7951160000    3.3070410000
H     -4.1444050000    0.9705250000   -2.1644470000
H     -5.7540680000    1.7060880000   -2.0234900000
H     -5.0773780000   -1.1776870000   -2.7987690000
H      0.8853030000   -3.9067870000    2.5098900000
H      2.5712340000   -3.7293700000    3.0105590000
H      3.2286360000   -4.9462630000    0.8446190000
H     -7.4911230000   -1.4755520000   -3.3590920000
H     -7.8640740000    0.1251350000   -2.6843740000
H     -7.2854160000   -1.1806700000   -1.6214530000
H     -6.2542720000    1.1308790000   -4.4628930000
H     -5.8867220000   -0.5000820000   -5.0634920000
H     -4.5653040000    0.5789090000   -4.5430280000
H      1.6561800000   -6.5453220000    2.9497380000
H      3.3430080000   -6.0064400000    3.1054630000
H      2.8992330000   -7.1915470000    1.8550970000
H      0.3021660000   -5.8686590000    0.8516620000
H      1.5817800000   -6.3670980000   -0.2786130000
H      0.9745430000   -4.6949480000   -0.3055360000
H      7.2044130000   -3.0030690000    0.7971650000
H     11.5924100000   -2.6445340000   -2.0845620000
H     11.3513290000    1.1504720000   -4.1300590000
H      9.2930100000    1.7569210000   -2.8599420000
H    -10.4563600000    1.0957570000    2.0131310000
H    -13.9226480000    4.4652570000   -0.2514890000
H    -11.5141460000    7.2893120000   -2.4612060000
H     -9.4265250000    6.3046210000   -1.5310610000