104
Y11.out: Geometry 74
C      3.8336690000    3.7841100000   -2.4466040000
O      5.0510350000    3.7076850000   -2.4747670000
C      3.0214470000    4.7631120000   -3.2070410000
C      3.4774620000    5.7411590000   -4.0833460000
C      2.5305270000    6.5757660000   -4.6641370000
F      2.8995520000    7.5283900000   -5.5174770000
C      1.1676530000    6.4285100000   -4.3478770000
F      0.2967210000    7.2704610000   -4.8962140000
C      0.7133430000    5.4363330000   -3.4816090000
C      1.6596020000    4.5813810000   -2.9026410000
C      1.5295370000    3.4424860000   -1.9554060000
C      0.3263310000    2.9865780000   -1.4379270000
C      0.2181090000    1.9026030000   -0.5115450000
N      0.1052870000    1.0236540000    0.2421060000
C     -0.9338740000    3.5712220000   -1.7764470000
N     -1.9679600000    4.0337650000   -2.0374990000
C      2.8792840000    2.9466830000   -1.6821130000
C      3.2044990000    1.8662510000   -0.8777050000
C      4.4202310000    1.3063020000   -0.4294190000
S      6.0474280000    1.9501300000   -0.7618020000
C      6.7420500000    0.7579590000    0.2740360000
C      5.7799710000   -0.1116980000    0.8296730000
C      4.4633470000    0.1703330000    0.4306700000
C      3.2787640000   -0.6451750000    0.8737420000
C      2.8563150000   -0.3825090000    2.3270040000
S      6.4947740000   -1.3487650000    1.8797840000
C      8.0852270000   -0.6965540000    1.5354280000
C      8.0442300000    0.4157180000    0.6851390000
N      9.3208330000    0.8676440000    0.4114450000
C      9.5040520000    1.6242990000   -0.8289500000
C      9.5125930000    0.7435580000   -2.0726140000
C     10.2165620000    0.0318070000    1.0978230000
C      9.4475690000   -0.9590940000    1.8052660000
C     10.1155970000   -1.9726060000    2.5527340000
N      9.6414740000   -2.9833080000    3.2977870000
N     10.7416350000   -3.5846030000    3.7344750000
C     10.6805800000   -4.7891240000    4.5501310000
C     10.6472840000   -6.0583440000    3.7072550000
N     11.9009150000   -3.0773260000    3.3320300000
C     11.5350970000   -2.0326140000    2.5739410000
C     12.3103210000   -1.0413180000    1.9061350000
C     11.6504600000    0.0284010000    1.2040040000
N     12.6392890000    0.8983420000    0.7297490000
C     12.5564110000    2.2486100000    0.1849210000
C     12.7879290000    2.3077140000   -1.3236110000
C     13.8681600000    0.3731270000    1.0721270000
C     13.6995740000   -0.8163680000    1.7936910000
S     15.2130560000   -1.5737370000    2.2201310000
C     16.0979950000   -0.2696330000    1.3998410000
C     15.2202560000    0.6966830000    0.8510660000
S     16.0739420000    1.9224180000   -0.0040880000
C     17.6312870000    1.1412860000    0.3575350000
C     17.4677270000   -0.0401380000    1.1265560000
C     18.6004040000   -0.9599960000    1.4714040000
C     18.2324330000   -2.4175010000    1.7434440000
C     18.7213660000    1.6786270000   -0.3683720000
C     20.0951160000    1.6007580000   -0.2170820000
C     21.0591940000    1.9550770000   -1.2601090000
C     20.7991650000    2.1876870000   -2.6006030000
C     21.8146190000    2.5646750000   -3.5344010000
N     22.6160110000    2.8808120000   -4.3147290000
C     19.5066300000    2.0589400000   -3.2021610000
N     18.4810430000    1.9603840000   -3.7415360000
C     22.4050220000    1.9596800000   -0.6423940000
C     23.6777830000    2.1921920000   -1.1806130000
C     24.7758380000    2.1012570000   -0.3306650000
F     26.0010920000    2.3179350000   -0.8032990000
C     24.6313570000    1.7795080000    1.0308540000
F     25.7253640000    1.6914720000    1.7824250000
C     23.3706230000    1.5533600000    1.5748320000
C     22.2760960000    1.6360220000    0.7217320000
C     20.8421110000    1.4072090000    1.0572990000
O     20.4025440000    1.1992710000    2.1740090000
H      4.5378160000    5.8557130000   -4.3144030000
H     -0.3554870000    5.3770710000   -3.2872400000
H      2.3553660000    1.3235870000   -0.4712230000
H      3.5556650000   -1.7078100000    0.7595350000
H      2.4168480000   -0.4818740000    0.2139200000
H      3.6880300000   -0.5623930000    3.0256670000
H      2.0245240000   -1.0456410000    2.6056430000
H      2.5117400000    0.6547180000    2.4537830000
H     10.4113910000    2.2185870000   -0.7704570000
H      8.6805620000    2.3510330000   -0.8794150000
H     10.3365240000    0.0141160000   -2.0354810000
H      9.6377980000    1.3667300000   -2.9715410000
H      8.5672410000    0.1899160000   -2.1717430000
H      9.7794830000   -4.6958520000    5.1718620000
H     11.5638010000   -4.7640380000    5.2035120000
H      9.7653030000   -6.0640260000    3.0493080000
H     10.5999880000   -6.9408450000    4.3633620000
H     11.5506380000   -6.1335950000    3.0835630000
H     13.3219620000    2.8492350000    0.7005300000
H     11.5978510000    2.6856920000    0.4890710000
H     13.7953100000    1.9483310000   -1.5780260000
H     12.6968160000    3.3433980000   -1.6848780000
H     12.0731180000    1.6841580000   -1.8746770000
H     19.1315290000   -0.5242690000    2.3334770000
H     19.3368740000   -0.9031980000    0.6514680000
H     17.6229480000   -2.5261310000    2.6538870000
H     19.1469420000   -3.0074170000    1.9036920000
H     17.6780160000   -2.8696170000    0.9064940000
H     18.3903990000    2.2522240000   -1.2374520000
H     23.8544780000    2.4516790000   -2.2224170000
H     23.2529130000    1.3009230000    2.6299040000