85
PDCBT-Cl_tetra.out: Geometry 255
C     -0.2366780000    0.1717170000   -0.8786790000
C      1.2402760000    0.0253650000   -0.7140070000
C      2.2437490000    0.9526590000   -0.9067820000
C      3.5465660000    0.4307080000   -0.6470500000
C      3.5397260000   -0.8957080000   -0.2633900000
S      1.8956880000   -1.4948060000   -0.2034690000
C      2.0632950000    2.3541120000   -1.3335260000
O      0.7684290000    2.6677930000   -1.4946070000
O      2.9580540000    3.1480080000   -1.5189640000
C      0.5358100000    4.0047370000   -1.9130610000
C      8.4148030000   -2.6575610000    0.7595580000
C      9.1833890000   -1.5093470000    0.5952710000
C     10.5673170000   -1.7197910000    0.7459960000
S      9.4661510000   -4.0114440000    1.1392120000
C      6.9728690000   -2.6683740000    0.6071900000
C      5.9838780000   -3.6545940000    0.5153300000
C      4.6948330000   -3.1285100000    0.1933000000
C      4.6546400000   -1.7596040000    0.0657130000
S      6.2347020000   -1.0845880000    0.3800950000
C      6.1112530000   -5.1245560000    0.7001720000
O      7.2988860000   -5.4724480000    1.2276910000
O      5.2455090000   -5.9350310000    0.4507350000
C      7.5369540000   -6.8541500000    1.4760280000
C     14.6488920000   -4.3463500000    0.9465560000
C     13.7636060000   -5.4292500000    0.9418540000
C     12.4046440000   -5.0698640000    0.9882100000
C     12.2010370000   -3.6964630000    1.0379160000
S     13.7311660000   -2.8493920000    1.0304780000
C     16.1004000000   -4.4623390000    0.8661930000
C     17.1528030000   -3.5537260000    0.6864130000
C     18.4327550000   -4.1747580000    0.5998860000
C     18.4176220000   -5.5457100000    0.6899110000
S     16.7756420000   -6.0985140000    0.9580060000
C     17.1472620000   -2.0840080000    0.4898700000
O     15.9341700000   -1.5116620000    0.5768930000
O     18.1545090000   -1.4454290000    0.2636090000
C     15.9118710000   -0.0985970000    0.3520970000
C     10.9202690000   -3.0401050000    0.9955050000
C     23.3568140000   -7.3095880000    0.1417380000
C     24.1134480000   -6.3933000000    0.8509140000
C     25.5057580000   -6.4847970000    0.5893720000
S     24.4104510000   -8.3065650000   -0.8465550000
C     21.9014890000   -7.3311230000    0.1437440000
C     20.9089530000   -8.3116910000    0.0325000000
C     19.5921200000   -7.8020160000    0.2805990000
C     19.5463150000   -6.4401970000    0.5179420000
S     21.1620460000   -5.7781400000    0.4760840000
C     21.0562260000   -9.7507540000   -0.3163920000
O     22.2001140000   -9.9978600000   -0.9745880000
O     20.2298190000  -10.6072910000   -0.1005450000
C     22.4193560000  -11.3343320000   -1.4072820000
C     25.8551300000   -7.4660240000   -0.3271520000
Cl    11.6802900000   -0.4113060000    0.5182030000
Cl    26.6500650000   -5.4569100000    1.3881900000
C     27.1467990000   -7.8754360000   -0.8627320000
S     28.6696950000   -7.5028740000   -0.0831160000
C     29.5635900000   -8.3910910000   -1.2646150000
C     28.7466990000   -8.9452390000   -2.2206280000
C     27.3698360000   -8.6526700000   -1.9944960000
H     -0.4949120000    0.4045810000   -1.9250400000
H     -0.6136520000    1.0080250000   -0.2680640000
H     -0.7630490000   -0.7439050000   -0.5824290000
H      4.4444480000    1.0359080000   -0.7670230000
H      0.9878350000    4.7210140000   -1.2059470000
H     -0.5516870000    4.1264360000   -1.9420350000
H      0.9690400000    4.1804390000   -2.9079980000
H      8.7759010000   -0.5374700000    0.3237020000
H      3.8330160000   -3.7812380000    0.0552370000
H      6.7832780000   -7.2589160000    2.1599020000
H      8.5391150000   -6.9063720000    1.9288680000
H      7.5047380000   -7.4289530000    0.5404390000
H     14.0969150000   -6.4612570000    0.8597020000
H     11.5794520000   -5.7914830000    0.9377830000
H     19.3271120000   -3.5823540000    0.4197500000
H     16.2837010000    0.1401110000   -0.6557910000
H     16.5495320000    0.4182520000    1.0827280000
H     14.8691290000    0.2184190000    0.4534900000
H     23.6890310000   -5.6699490000    1.5457210000
H     18.7146830000   -8.4457260000    0.2340670000
H     21.6041170000  -11.6581180000   -2.0679480000
H     22.4721790000  -12.0198380000   -0.5494770000
H     23.3690250000  -11.3197810000   -1.9534750000
H     30.6484700000   -8.4565960000   -1.1899350000
H     29.1192890000   -9.5398110000   -3.0574250000
H     26.5571040000   -8.9983320000   -2.6334360000