127
PTB7-Th_tetra.out: Geometry 66
C      0.4579190000    2.2569470000    0.3068640000
C      1.4211920000    1.2153690000    0.2837750000
C      0.9985280000   -0.1506090000    0.2306750000
C     -0.3429360000   -0.5482810000    0.1825380000
C     -1.3070620000    0.4948010000    0.2139500000
C     -0.8855360000    1.8592710000    0.2699970000
C      2.8498930000    1.3294470000    0.2713920000
C      3.5007370000    0.1189870000    0.2336670000
S      2.3768400000   -1.2393210000    0.1679360000
C     -2.7305700000    0.3857000000    0.2480520000
C     -3.3903800000    1.5973120000    0.3141950000
S     -2.2541950000    2.9503190000    0.3535400000
C      0.8199360000    3.6783420000    0.3763060000
C     -0.7064350000   -1.9664330000    0.0847790000
C      4.9234630000   -0.1068110000    0.2551520000
C      0.3114900000    4.7318010000   -0.3552060000
C      0.8544190000    5.9953000000    0.0200010000
C      1.7700100000    5.9216090000    1.0444350000
S      1.9701310000    4.2686070000    1.5573320000
C     -0.2030600000   -3.0381530000    0.7919110000
C     -0.7312760000   -4.2930340000    0.3692050000
C     -1.6313310000   -4.1940140000   -0.6661950000
S     -1.8392890000   -2.5263770000   -1.1289710000
S      5.6073790000   -1.6943830000    0.5689410000
C      7.2493050000   -1.1476260000    0.4855520000
C      7.2653150000    0.2144930000    0.2199200000
C      5.9599210000    0.8002070000    0.1034710000
C      8.2844170000    1.2082460000    0.0321640000
C      7.8098900000    2.4709350000   -0.2115260000
S      6.0307190000    2.5254030000   -0.1818050000
F      9.5770680000    0.8772070000    0.1132310000
C      8.4632510000    3.8003310000   -0.3209190000
C      2.5196760000    7.0370560000    1.7176170000
C      3.9814980000    6.7146760000    2.0509640000
C     -2.3490150000   -5.2970320000   -1.3921940000
C     -3.8131750000   -4.9950370000   -1.7311010000
O      9.7626110000    3.8800120000   -0.6570820000
O      7.8389320000    4.8040500000   -0.0734800000
C     10.4151000000    3.0063550000   -1.5897190000
C     11.1645870000    3.8674550000   -2.5872420000
C    -12.3238880000    0.9667020000   -0.2117270000
C    -10.9750410000    0.5434370000   -0.1180290000
C    -10.6409000000   -0.8449570000   -0.0918160000
C    -11.6047270000   -1.8601990000   -0.1384730000
C    -12.9597070000   -1.4410690000   -0.2192660000
C    -13.2869160000   -0.0497010000   -0.2576310000
C     -9.8140410000    1.3698010000   -0.0335410000
C     -8.6300960000    0.6764420000    0.0162440000
S     -8.8924280000   -1.0733700000   -0.0093480000
C    -14.1482180000   -2.2564450000   -0.2666740000
C    -15.2932400000   -1.5253590000   -0.3568860000
S    -15.0215690000    0.1971570000   -0.3830800000
C    -12.6774540000    2.3922850000   -0.2310680000
C    -11.2222290000   -3.2788290000   -0.0971710000
C     -7.3292740000    1.2829640000    0.1043560000
C    -13.5847720000    3.0699830000    0.5557960000
C    -13.5936100000    4.4779780000    0.3223670000
C    -12.7065160000    4.8833680000   -0.6479660000
S    -11.8581660000    3.5106350000   -1.3012520000
C    -10.3824060000   -3.9185550000    0.7893010000
C    -10.2437750000   -5.3150230000    0.5289970000
C    -10.9627520000   -5.7486060000   -0.5598820000
S    -11.8205230000   -4.4157960000   -1.2861760000
S     -5.8418550000    0.3687530000    0.1488190000
C     -4.8199210000    1.7840520000    0.3031500000
C     -5.6314320000    2.9320760000    0.3308710000
C     -7.0287290000    2.6369060000    0.1937530000
C     -5.4484130000    4.3513930000    0.4706950000
C     -6.5987120000    5.0954310000    0.3824220000
S     -8.0295800000    4.0704430000    0.2005500000
F     -4.2516980000    4.8826360000    0.7194450000
C     -6.9101710000    6.5360820000    0.5730930000
C    -12.4061000000    6.2667430000   -1.1487520000
C    -10.9109590000    6.6072560000   -1.1660360000
C    -11.0776130000   -7.1344320000   -1.1269860000
C    -12.5193250000   -7.6442920000   -1.2455510000
O     -5.9485270000    7.4663300000    0.4605770000
O     -8.0385430000    6.8700310000    0.8539030000
C     -4.8207860000    7.3836490000   -0.4272010000
C     -4.6204330000    8.7487750000   -1.0591470000
C      8.3960150000   -2.0883660000    0.6744950000
H      3.3694090000    2.2840410000    0.3182500000
H     -3.2524880000   -0.5700320000    0.2220470000
H     -0.4137720000    4.5935040000   -1.1578620000
H      0.5794400000    6.9367660000   -0.4585590000
H      0.5100490000   -2.9197270000    1.6083750000
H     -0.4533700000   -5.2473100000    0.8197290000
H      1.9913770000    7.3215590000    2.6462000000
H      2.4587100000    7.9185240000    1.0584550000
H      4.0528700000    5.8854250000    2.7731290000
H      4.4819090000    7.5854780000    2.5018270000
H      4.5466990000    6.4160650000    1.1546700000
H     -2.2776500000   -6.2028410000   -0.7681830000
H     -1.8050760000   -5.5330080000   -2.3252810000
H     -4.3917240000   -4.7545520000   -0.8257960000
H     -4.2876920000   -5.8559770000   -2.2269940000
H     -3.8978570000   -4.1347560000   -2.4143210000
H      9.6739550000    2.3652730000   -2.0936950000
H     11.1013970000    2.3551420000   -1.0291890000
H     10.4686550000    4.4849550000   -3.1761990000
H     11.7435760000    3.2335310000   -3.2779670000
H     11.8601130000    4.5394830000   -2.0621020000
H     -9.8755910000    2.4531710000   -0.0152860000
H    -14.1329190000   -3.3447500000   -0.2357130000
H    -16.3124440000   -1.9071520000   -0.4058230000
H    -14.1948750000    2.5706100000    1.3093420000
H    -14.2245980000    5.1791960000    0.8708080000
H     -9.9034960000   -3.4011510000    1.6212300000
H     -9.6350080000   -5.9873410000    1.1361510000
H    -12.9518080000    6.9774480000   -0.5081280000
H    -12.8243750000    6.3917320000   -2.1646460000
H    -10.4602690000    6.5356450000   -0.1658250000
H    -10.7475790000    7.6287770000   -1.5434990000
H    -10.3548250000    5.9207270000   -1.8234420000
H    -10.4896420000   -7.8078020000   -0.4831370000
H    -10.5973730000   -7.1706160000   -2.1216000000
H    -13.0106970000   -7.6798240000   -0.2611270000
H    -12.5426600000   -8.6540020000   -1.6843620000
H    -13.1202790000   -6.9855460000   -1.8914700000
H     -5.0039330000    6.6145580000   -1.1946250000
H     -3.9382430000    7.0828610000    0.1536450000
H     -5.5057250000    9.0506380000   -1.6396220000
H     -3.7494100000    8.7308250000   -1.7334780000
H     -4.4418760000    9.5081350000   -0.2837730000
H      8.1397940000   -2.8995450000    1.3715340000
H      9.2651500000   -1.5473670000    1.0738880000
H      8.7026270000   -2.5559300000   -0.2777230000