106
AQx.out: Geometry 24
C      8.6369960000    2.7231180000    1.8610290000
O      9.1116680000    1.6093000000    2.0104090000
C      9.0670050000    3.9339120000    2.5953410000
C     10.0481510000    4.0166220000    3.5746680000
C     10.2986580000    5.2668130000    4.1263840000
F     11.2236160000    5.4137790000    5.0713800000
C      9.5753670000    6.3923360000    3.6913020000
F      9.8464170000    7.5718160000    4.2434050000
C      8.5909340000    6.3028700000    2.7091430000
C      8.3261750000    5.0445730000    2.1522620000
C      7.3619570000    4.5863180000    1.1155440000
C      6.5037400000    5.4230380000    0.4200220000
C      5.6126420000    4.9751970000   -0.6044150000
N      4.8764960000    4.6450610000   -1.4421800000
C      6.4421900000    6.8307360000    0.6600370000
N      6.3848530000    7.9763990000    0.8484950000
C      7.5327770000    3.1411450000    0.9664120000
C      6.7378460000    2.2883990000    0.2161760000
C      6.8088080000    0.9062330000   -0.0695120000
S      8.1829090000   -0.1574550000    0.3099230000
C      7.4039420000   -1.4721530000   -0.4846570000
C      6.1137400000   -1.1397710000   -0.9556340000
C      5.7783580000    0.2109370000   -0.7659880000
C      4.5372540000    0.8490040000   -1.3288610000
C      4.7624530000    1.3588840000   -2.7643390000
S      5.2585430000   -2.5337580000   -1.6472560000
C      6.6547110000   -3.5347850000   -1.3108390000
C      7.7121620000   -2.8233930000   -0.7268430000
N      8.7850760000   -3.6631880000   -0.4953580000
C      9.8935300000   -3.2163080000    0.3459980000
C     10.8979040000   -2.3246140000   -0.3791670000
C      8.4284740000   -4.9353700000   -0.9415790000
C      7.0721970000   -4.8830220000   -1.4136680000
C      6.3348030000   -6.0559210000   -1.7769110000
N      5.0324970000   -5.9678910000   -2.1100790000
C      4.3714890000   -7.0926970000   -2.3408350000
C      2.9108630000   -6.9937570000   -2.6759750000
C      5.0269820000   -8.3668880000   -2.2633350000
C      4.2745220000   -9.6439090000   -2.5124950000
N      6.3127700000   -8.4553580000   -1.9570570000
C      6.9825860000   -7.3152050000   -1.7023720000
C      8.3728100000   -7.3545210000   -1.3649030000
C      9.1248590000   -6.1826630000   -1.0174770000
N     10.4600570000   -6.5568190000   -0.8551320000
C     11.6589600000   -5.7831470000   -0.5618180000
C     12.1246630000   -5.9184950000    0.8882080000
C     10.5442250000   -7.9177910000   -1.0600690000
C      9.2750340000   -8.4420980000   -1.3487040000
S      9.2869370000  -10.1711450000   -1.5913480000
C     11.0375980000  -10.1792700000   -1.3226560000
C     11.5581180000   -8.8925670000   -1.0733110000
S     13.2699910000   -8.9214030000   -0.8479610000
C     13.2901790000  -10.6877290000   -1.0180990000
C     12.0054000000  -11.2046410000   -1.2901470000
C     11.6706290000  -12.6649610000   -1.3665200000
C     11.1169510000  -13.1670620000   -0.0211000000
C     14.5108180000  -11.4090390000   -0.9852120000
C     15.7500440000  -11.0319180000   -0.5130710000
C     16.1756680000   -9.9746160000    0.3888470000
C     15.4467950000   -9.4539960000    1.4469800000
C     15.8989780000   -8.3374120000    2.2118960000
N     16.2560960000   -7.4005020000    2.8009270000
C     14.2113900000  -10.0350790000    1.8689680000
N     13.2319760000  -10.5365570000    2.2435320000
C     17.6121690000   -9.7207250000    0.1236360000
C     18.4907340000   -8.7455720000    0.6128860000
C     19.8195520000   -8.7986830000    0.1986890000
F     20.6861630000   -7.8836260000    0.6281660000
C     20.2849610000   -9.8025740000   -0.6710990000
F     21.5664220000   -9.7895920000   -1.0279390000
C     19.4232620000  -10.7868830000   -1.1453770000
C     18.0938600000  -10.7276150000   -0.7403620000
C     16.9779200000  -11.6467100000   -1.1107340000
O     17.0489010000  -12.6455780000   -1.7961630000
H     10.6045070000    3.1376780000    3.9035840000
H      8.0707010000    7.2147440000    2.4257860000
H      5.8674770000    2.7497090000   -0.2472250000
H      4.1966100000    1.6798650000   -0.6932600000
H      3.7263170000    0.1018650000   -1.3146040000
H      5.5213110000    2.1550950000   -2.7811750000
H      3.8342760000    1.7807770000   -3.1778220000
H      5.1031710000    0.5440090000   -3.4217030000
H     10.3672030000   -4.0939720000    0.7919850000
H      9.4523950000   -2.6600720000    1.1882920000
H     11.3722290000   -2.8392740000   -1.2284070000
H     11.6876200000   -2.0052680000    0.3173690000
H     10.4115820000   -1.4198090000   -0.7704780000
H      2.5944150000   -5.9453240000   -2.6089470000
H      2.2970650000   -7.5962670000   -1.9881520000
H      2.7032270000   -7.3671080000   -3.6932900000
H      3.4602120000   -9.7788340000   -1.7814470000
H      4.9671470000  -10.4912890000   -2.4299730000
H      3.8042500000   -9.6535690000   -3.5097530000
H     11.4776680000   -4.7438830000   -0.8441700000
H     12.4479750000   -6.1397390000   -1.2429180000
H     11.3220180000   -5.6635700000    1.5962810000
H     12.9815240000   -5.2554740000    1.0785610000
H     12.4418860000   -6.9476360000    1.1101130000
H     12.5607900000  -13.2474860000   -1.6498410000
H     10.9228680000  -12.8222690000   -2.1618830000
H     11.8552080000  -13.0191060000    0.7805940000
H     10.8547280000  -14.2346090000   -0.0779630000
H     10.2118210000  -12.6075300000    0.2601680000
H     14.5148040000  -12.3689150000   -1.5161060000
H     18.1887150000   -7.9473880000    1.2888080000
H     19.7837450000  -11.5758850000   -1.8078030000