115
BT6IC-HD-4Cl.out: Geometry 49
C      3.2853650000    6.6762590000   -0.2935040000
O      4.2680300000    7.3861860000   -0.3504290000
C      1.8634350000    7.1016370000   -0.3331330000
C      1.3552900000    8.3849800000   -0.4603170000
C     -0.0333620000    8.5502040000   -0.4989000000
C     -0.8781850000    7.4219330000   -0.4147510000
C     -0.3531940000    6.1310200000   -0.2593010000
C      1.0326460000    5.9689740000   -0.2126590000
C      1.8830360000    4.7698830000    0.0065630000
C      1.4286630000    3.5644440000    0.5166500000
C      2.3121890000    2.5655710000    1.0206670000
N      3.0160670000    1.7492980000    1.4555660000
C      0.0422380000    3.2548850000    0.6717510000
N     -1.0791800000    2.9716540000    0.7876140000
C      3.2629670000    5.1758560000   -0.2023850000
C      4.4809080000    4.5431960000   -0.3242550000
C      4.9189850000    3.2117570000   -0.5487300000
S      6.5393840000    2.8552030000    0.0876830000
C      6.4364510000    1.2310810000   -0.4788950000
C      5.2288270000    0.9955560000   -1.1722560000
C      4.3601610000    2.1108860000   -1.2276450000
C      3.1059090000    2.1872010000   -2.0559330000
C      2.1901190000    0.9608040000   -2.0001990000
S      5.1112250000   -0.6638310000   -1.7777610000
C      6.6743280000   -1.0123390000   -1.0891970000
C      7.2450970000    0.0765570000   -0.4227710000
N      8.5088390000   -0.2526140000    0.0412680000
C      9.4653600000    0.8388200000    0.2211780000
C     10.3256230000    1.1512580000   -1.0199720000
C      8.7560070000   -1.5856420000   -0.3241430000
C      7.6154090000   -2.0627560000   -1.0478950000
C      7.5785690000   -3.3724900000   -1.6208820000
N      6.5825300000   -3.9163260000   -2.3069910000
S      7.0849990000   -5.4260150000   -2.7638410000
N      8.5959080000   -5.4072760000   -2.0860860000
C      8.7391760000   -4.2286570000   -1.4945950000
C      9.8518770000   -3.7770850000   -0.7135560000
C      9.8502280000   -2.4916520000   -0.0712430000
N     10.9701970000   -2.4304660000    0.7625910000
C     11.3859940000   -1.4489380000    1.7604660000
C     12.4591920000   -0.4260660000    1.3199850000
C     11.6597800000   -3.6243720000    0.6410930000
C     11.0150680000   -4.4519320000   -0.2893310000
S     11.8296380000   -5.9740630000   -0.5459100000
C     13.0471900000   -5.5085550000    0.6495120000
C     12.7923750000   -4.2409930000    1.2192600000
S     13.9647600000   -3.8575350000    2.4238330000
C     14.8309960000   -5.3870960000    2.1294860000
C     14.2242860000   -6.1462470000    1.1065180000
C     14.8383150000   -7.3257430000    0.4014690000
C     15.2224530000   -6.9935610000   -1.0516590000
C     16.0476180000   -5.5016670000    2.8516200000
C     16.8174190000   -6.5878590000    3.2158060000
C     18.1680230000   -6.5048970000    3.7715370000
C     18.9741220000   -5.3842090000    3.8900950000
C     18.6155120000   -4.0812380000    3.4221830000
N     18.3720360000   -3.0079310000    3.0465470000
C     20.2616160000   -5.4246050000    4.5098580000
N     21.3034370000   -5.4379840000    5.0246240000
C     18.5709340000   -7.8756080000    4.1599190000
C     19.7717430000   -8.3809110000    4.6625280000
C     19.8869840000   -9.7578750000    4.8829690000
C     18.8092010000  -10.6321540000    4.6206980000
C     17.5999740000  -10.1220660000    4.1334850000
C     17.5040890000   -8.7579530000    3.9017700000
C     16.3533030000   -8.0038400000    3.3299070000
O     15.2545260000   -8.4593130000    3.0770700000
Cl    18.9744060000  -12.3346810000    4.8835080000
Cl    -0.6937490000   10.1432270000   -0.6500510000
C     13.0827250000    0.2357070000    2.5599730000
C     12.0964820000    0.9808530000    3.4621530000
C     13.5372270000   -0.9937720000    0.3950560000
C      9.5103370000    1.1819670000   -2.3214440000
C     10.3640240000    1.3142920000   -3.5828200000
C     11.0668430000    2.4698450000   -0.7706720000
Cl    -2.5970830000    7.6138340000   -0.4931700000
Cl    21.3935390000  -10.3676550000    5.4796600000
H      2.0217560000    9.2455870000   -0.5285100000
H     -1.0463850000    5.2970110000   -0.1765850000
H      5.2997840000    5.2725830000   -0.2335150000
H      3.4260570000    2.3542260000   -3.1016630000
H      2.5402380000    3.0837650000   -1.7810490000
H      2.6585350000    0.0750450000   -2.4536480000
H      1.2650860000    1.1591210000   -2.5609570000
H      1.9190770000    0.7037730000   -0.9669830000
H     10.1000100000    0.6530040000    1.0911650000
H      8.8722080000    1.7249190000    0.4860000000
H     11.0700930000    0.3415000000   -1.1242710000
H     11.7785200000   -2.0296530000    2.6111340000
H     10.4884630000   -0.9432210000    2.1373020000
H     11.9550070000    0.3677570000    0.7577970000
H     14.1294370000   -8.1703860000    0.4363430000
H     15.7253860000   -7.6643500000    0.9400370000
H     14.3547140000   -6.6852120000   -1.6535110000
H     15.6778010000   -7.8711950000   -1.5364680000
H     15.9547940000   -6.1715370000   -1.0813900000
H     16.4241100000   -4.5331700000    3.1883170000
H     20.6287440000   -7.7523410000    4.8895630000
H     16.7593020000  -10.7841380000    3.9211280000
H     13.8559610000    0.9402090000    2.2118730000
H     13.6191550000   -0.5329780000    3.1448010000
H     11.5120060000    1.7218660000    2.8908740000
H     12.6269290000    1.5261750000    4.2575450000
H     11.3807140000    0.3041940000    3.9566110000
H     14.1751200000   -1.7264680000    0.9092610000
H     14.1893560000   -0.1778030000    0.0491250000
H     13.1071610000   -1.4768960000   -0.4947230000
H      8.7769340000    2.0061530000   -2.2680860000
H      8.9220160000    0.2554960000   -2.4025070000
H     10.9073520000    2.2710200000   -3.6276400000
H      9.7363480000    1.2496110000   -4.4848530000
H     11.1131900000    0.5067320000   -3.6413810000
H     10.3538830000    3.3121090000   -0.7643260000
H     11.8165250000    2.6693690000   -1.5490040000
H     11.5928650000    2.4688760000    0.1971900000