103
BTTPC.out: Geometry 42
C     -2.9655320000   -1.5800110000   -0.6959100000
O     -2.5506920000   -0.9197520000   -1.6309090000
C     -2.4256460000   -2.8919640000   -0.2589470000
C     -1.3842870000   -3.5956690000   -0.8329000000
C     -1.0360710000   -4.8393570000   -0.2678480000
C     -1.7705890000   -5.3093670000    0.8637860000
C     -2.8209760000   -4.5872090000    1.4480780000
C     -3.1479810000   -3.3571630000    0.8735750000
C     -4.1789050000   -2.3531760000    1.2167190000
C     -5.1338430000   -2.4933800000    2.2116550000
C     -5.1847840000   -3.6334300000    3.0729940000
N     -5.2315480000   -4.5549270000    3.7802760000
C     -6.1705130000   -1.5388440000    2.4571570000
N     -7.0249190000   -0.7820590000    2.6789050000
C     -4.0408260000   -1.2300270000    0.2797650000
C     -4.6090110000    0.0145160000    0.4574570000
C     -4.6685860000    1.1933490000   -0.3440680000
S     -4.7926640000    2.6949780000    0.6181220000
C     -4.9126670000    3.6496090000   -0.8106210000
C     -4.9036660000    2.8400420000   -1.9652360000
C     -4.7738660000    1.4518360000   -1.7257370000
C     -4.9621030000    0.4326560000   -2.8140500000
C     -6.4417800000    0.0532190000   -2.9924240000
S     -5.0495990000    3.7799030000   -3.4572120000
C     -5.0957080000    5.2508460000   -2.5134340000
C     -4.9949920000    5.0206450000   -1.1349880000
N     -5.0347170000    6.2221250000   -0.4395790000
C     -5.6802830000    6.2197910000    0.8796590000
C     -7.1991550000    6.1376210000    0.7822290000
C     -5.1297490000    7.2430310000   -1.3976700000
C     -5.2079790000    6.6542210000   -2.6951960000
C     -5.3997950000    7.4741300000   -3.8563600000
N     -5.5582350000    7.0647850000   -5.1077630000
S     -5.8025620000    8.4164050000   -6.0317270000
N     -5.7050390000    9.5626090000   -4.8410720000
C     -5.4839550000    8.9191970000   -3.7029620000
C     -5.2685610000    9.5018990000   -2.4120290000
C     -5.0675130000    8.6705650000   -1.2652800000
N     -4.7352760000    9.4864700000   -0.1848050000
C     -4.0713330000    9.1295400000    1.0684530000
C     -4.9276630000    9.3805560000    2.3073050000
C     -4.7368690000   10.7968070000   -0.6292320000
C     -5.0637370000   10.8379990000   -1.9930950000
S     -4.9376420000   12.4423000000   -2.6759530000
C     -4.4113290000   13.0637700000   -1.1035690000
C     -4.3598140000   12.0565310000   -0.1160340000
S     -3.8137560000   12.6810320000    1.3962750000
C     -3.6791690000   14.3166520000    0.7129390000
C     -4.0067360000   14.3460990000   -0.6572370000
C     -3.7219730000   15.5041420000   -1.5774210000
C     -4.8542430000   15.9328600000   -2.5176160000
C     -3.1961700000   15.2872340000    1.6346520000
C     -3.2697380000   16.6547250000    1.7786040000
C     -4.0577310000   17.7365470000    1.2064630000
C     -5.2858830000   17.6115190000    0.5737880000
C     -5.9681110000   18.7180060000   -0.0171280000
N     -6.5145850000   19.6087400000   -0.5268460000
C     -6.0072220000   16.3827800000    0.5658770000
N     -6.6120180000   15.3900640000    0.5791980000
C     -3.4378750000   19.0179930000    1.6298320000
C     -3.7326730000   20.3436080000    1.3073010000
C     -3.0059220000   21.3414700000    1.9777520000
C     -2.0068040000   21.0544980000    2.9590170000
C     -1.7206610000   19.7102470000    3.2629720000
C     -2.4299320000   18.7325680000    2.5942770000
C     -2.3075300000   17.2677890000    2.7591450000
O     -1.5628010000   16.6759160000    3.5147280000
C     -1.4316340000   22.2512030000    3.5084300000
C     -1.9666120000   23.3836390000    2.9694830000
S     -3.1913600000   23.0670330000    1.7680440000
S     -1.1822660000   -6.8698590000    1.3902370000
C      0.0182130000   -6.8825290000    0.1252720000
C     -0.0131520000   -5.7690840000   -0.6632980000
H      0.6887010000   -7.7371420000    0.0376320000
H     -1.7091420000   24.4142030000    3.2126600000
H     -0.8602670000   -3.1880950000   -1.6996750000
H     -3.3402990000   -4.9863600000    2.3155840000
H     -5.0652330000    0.1694610000    1.4380190000
H     -4.3523960000   -0.4511790000   -2.6069760000
H     -4.5722280000    0.8604980000   -3.7526940000
H     -6.8511360000   -0.3802870000   -2.0668940000
H     -6.5585020000   -0.6908640000   -3.7955950000
H     -7.0516620000    0.9316960000   -3.2542320000
H     -5.3810040000    7.1047750000    1.4406950000
H     -5.2724080000    5.3591860000    1.4301550000
H     -7.6079100000    7.0262670000    0.2771580000
H     -7.6442440000    6.0762100000    1.7865790000
H     -7.5113200000    5.2476940000    0.2155170000
H     -3.1479610000    9.7274720000    1.1311620000
H     -3.7467680000    8.0846770000    0.9919890000
H     -5.8819970000    8.8359250000    2.2654530000
H     -5.1671660000   10.4484320000    2.4161390000
H     -4.3830370000    9.0608630000    3.2094460000
H     -2.8583350000   15.1965480000   -2.1949090000
H     -3.3732420000   16.3626290000   -0.9903580000
H     -5.7390860000   16.2819590000   -1.9707420000
H     -5.1797980000   15.1088060000   -3.1695610000
H     -4.5071350000   16.7502960000   -3.1671980000
H     -2.5849680000   14.8583620000    2.4431250000
H     -4.4912690000   20.6113720000    0.5733350000
H     -0.9716960000   19.4329070000    4.0075970000
H     -0.6549150000   22.2510070000    4.2740270000
H      0.6616860000   -5.6012480000   -1.5032590000