143
DTG-IW.out: Geometry 135
C     -0.8233730000    0.4967430000   -0.3488630000
C      0.4162050000   -0.1416070000   -0.1658480000
S      0.2386950000   -1.6740810000    0.6540360000
C     -1.4939310000   -1.4787970000    0.7705280000
C     -1.8720130000   -0.2632160000    0.2051320000
C     -2.4115700000   -2.3697550000    1.3968740000
C     -2.3501440000   -3.6915950000    1.7558850000
C     -1.4504660000   -4.7892310000    1.4312110000
C     -0.7378740000   -4.9449850000    0.2554640000
C      0.1616000000   -6.0326450000    0.0349610000
N      0.9174700000   -6.8963300000   -0.1486350000
C     -0.9473590000   -4.0959470000   -0.8749360000
N     -1.1527350000   -3.4499100000   -1.8184920000
C     -1.6559400000   -5.8402870000    2.4592910000
C     -1.0009320000   -7.0560630000    2.6924550000
C     -1.5001460000   -7.8831600000    3.6959590000
F     -0.9086650000   -9.0469240000    3.9506300000
C     -2.6307870000   -7.5328000000    4.4576570000
F     -3.0548640000   -8.3782140000    5.3941360000
C     -3.2906960000   -6.3308260000    4.2287510000
C     -2.7884840000   -5.5017090000    3.2312650000
C     -3.3201800000   -4.1855720000    2.7876650000
O     -4.3060480000   -3.6126060000    3.2021670000
C      8.2880420000    3.3340080000   -5.8173410000
C      7.1007230000    3.5935550000   -5.1071250000
S      6.3085310000    5.0278700000   -5.6767600000
C      7.5639600000    5.3241060000   -6.8676270000
C      8.5355570000    4.3213000000   -6.7925870000
C      7.3995850000    6.4793870000   -7.6789200000
C      8.2509220000    7.1465340000   -8.5352840000
C      7.9161500000    8.3786650000   -9.2605670000
C      6.6685040000    8.9435070000   -9.4597970000
C      6.4809280000   10.1525430000  -10.2010490000
N      6.3208250000   11.1363830000  -10.7987530000
C      5.4483730000    8.3790290000   -8.9728970000
N      4.4409980000    7.9458220000   -8.5877320000
C      9.1782920000    8.9279050000   -9.8064250000
C      9.4555240000   10.1123260000  -10.5000680000
C     10.7724800000   10.3602510000  -10.8695620000
F     11.0686100000   11.4789340000  -11.5239560000
C     11.8101500000    9.4581800000  -10.5707620000
F     13.0471900000    9.7630360000  -10.9513570000
C     11.5427470000    8.2752650000   -9.8897010000
C     10.2251530000    8.0330220000   -9.5160090000
C      9.6946420000    6.8613270000   -8.7708650000
O     10.3522580000    5.8912000000   -8.4343510000
C     -1.0097070000    1.8151930000   -1.0601630000
C     -2.3374330000    2.5697270000   -0.8248580000
C     -2.3382450000    3.3883570000    0.4781280000
C     -2.1845300000    2.6137150000    1.7878770000
C     -2.6313610000    3.4651590000   -2.0457280000
C     -3.9855480000    4.1741880000   -2.0226420000
C      1.7457000000    0.2741900000   -0.5522570000
S      2.0325190000    1.2477280000   -1.9920730000
C      3.7454760000    1.1663290000   -1.7545640000
C      4.0957500000    0.4338160000   -0.6158540000
C      2.9564120000   -0.0670180000    0.0535300000
C      4.8093650000    1.7842060000   -2.5156280000
C      6.1156410000    1.6644200000   -2.0331910000
Ge     6.0264080000    0.7231860000   -0.2999750000
S      4.7342100000    2.6390180000   -4.0191960000
C      6.4838490000    2.8447020000   -4.0317290000
C      7.0553510000    2.2674100000   -2.9026980000
C      9.0920450000    2.0592780000   -5.6680260000
C     10.5006510000    2.0335900000   -6.2964890000
C     11.5734220000    2.6645120000   -5.3900780000
C     11.3202530000    4.1039430000   -4.9374800000
C     10.8602530000    0.5817910000   -6.6752310000
C     12.2333550000    0.3964910000   -7.3225450000
C      6.0856470000    1.9863590000    1.2148120000
C      7.2862710000   -0.7660470000   -0.1198600000
C      5.4578900000    3.3447390000    0.8389540000
C      4.7341700000    4.0044290000    2.0283280000
C      3.3767740000    3.3722700000    2.3398340000
C      6.5115770000    4.2727890000    0.2070440000
C      5.9137650000    5.3459830000   -0.6992510000
C      8.7405940000   -0.3072980000   -0.4041270000
C      9.7447800000   -0.9452320000    0.5704550000
C      9.6014570000   -0.4869740000    2.0206520000
C      9.1022980000   -0.5861960000   -1.8747810000
C     10.4207610000    0.0250670000   -2.3484950000
H     -2.9147430000    0.0486240000    0.2016150000
H     -3.3439440000   -1.8893500000    1.7229400000
H     -0.1265390000   -7.3872740000    2.1343610000
H     -4.1749480000   -6.0562960000    4.8063220000
H      9.3933820000    4.3370190000   -7.4568830000
H      6.4189080000    6.9393940000   -7.5525350000
H      8.7039580000   10.8517820000  -10.7654170000
H     12.3408040000    7.5703080000   -9.6509480000
H     -0.9079500000    1.6225210000   -2.1428850000
H     -0.1707980000    2.4860560000   -0.8085990000
H     -3.1597200000    1.8341480000   -0.7711670000
H     -3.2786080000    3.9595680000    0.5272500000
H     -1.5343930000    4.1448060000    0.4024960000
H     -2.9752870000    1.8557650000    1.9080200000
H     -2.2584980000    3.3001640000    2.6461820000
H     -1.2179440000    2.0919810000    1.8603760000
H     -2.5735300000    2.8358470000   -2.9507810000
H     -1.8225740000    4.2116160000   -2.1481710000
H     -4.8093500000    3.4508640000   -1.9007810000
H     -4.1608730000    4.7221450000   -2.9618680000
H     -4.0634250000    4.9053940000   -1.2036090000
H      2.9873380000   -0.6542590000    0.9730970000
H      8.1250010000    2.3311090000   -2.7018430000
H      8.4864290000    1.2597010000   -6.1316130000
H      9.1699360000    1.7735530000   -4.6086540000
H     10.4764100000    2.6030810000   -7.2409960000
H     12.5363710000    2.6357760000   -5.9242670000
H     11.7021880000    2.0167230000   -4.5034870000
H     11.2167040000    4.7836040000   -5.7973700000
H     12.1584700000    4.4681060000   -4.3222080000
H     10.4055130000    4.1983650000   -4.3321670000
H     10.0851850000    0.2072870000   -7.3656640000
H     10.7869590000   -0.0550620000   -5.7745720000
H     12.3831090000    1.1098890000   -8.1495640000
H     12.3409790000   -0.6177570000   -7.7381780000
H     13.0533800000    0.5451170000   -6.6044240000
H      7.1174050000    2.1142470000    1.5812910000
H      5.5257250000    1.4905860000    2.0246250000
H      6.9968480000   -1.5893620000   -0.7909500000
H      7.1777790000   -1.1475960000    0.9069680000
H      4.6821170000    3.1721710000    0.0713850000
H      4.5800600000    5.0742590000    1.8061770000
H      5.3911250000    3.9682940000    2.9161340000
H      2.6981800000    3.4660380000    1.4750690000
H      2.8914650000    3.8580110000    3.2008850000
H      3.4621500000    2.2973060000    2.5678700000
H      7.2153280000    3.6656040000   -0.3849380000
H      7.1133030000    4.7352080000    1.0114040000
H      5.3699810000    4.8839890000   -1.5395630000
H      6.6913640000    5.9981870000   -1.1258330000
H      5.2017560000    5.9883440000   -0.1561530000
H      8.8163390000    0.7891580000   -0.2537190000
H     10.7668380000   -0.7079550000    0.2329040000
H      9.6454980000   -2.0445070000    0.5075970000
H      9.7610420000    0.6008090000    2.1120920000
H     10.3369330000   -0.9856410000    2.6695480000
H      8.6042680000   -0.7115430000    2.4317360000
H      8.2844750000   -0.2170360000   -2.5137750000
H      9.1260370000   -1.6808250000   -2.0234390000
H     10.4255190000    1.1231870000   -2.2344140000
H     10.5985340000   -0.1998650000   -3.4113300000
H     11.2832780000   -0.3658010000   -1.7880490000