115
F-H.out: Geometry 28
C     -6.0188320000    0.6326860000   -1.1184280000
O     -7.1419110000    0.3273320000   -1.4646010000
C     -5.3955830000    1.9800230000   -1.1632060000
C     -5.9416040000    3.1611920000   -1.6497030000
C     -5.1568550000    4.3177840000   -1.6077510000
C     -3.8571600000    4.2670060000   -1.0848810000
C     -3.3116070000    3.0776960000   -0.5847810000
C     -4.0926090000    1.9161840000   -0.6228530000
C     -3.8534870000    0.5346340000   -0.1248110000
C     -2.9150810000    0.1833570000    0.8310090000
C     -3.0040260000   -1.0321580000    1.5767220000
N     -3.0912840000   -1.9910670000    2.2275600000
C     -1.8831270000    1.0757110000    1.2579810000
N     -1.0322780000    1.7911890000    1.5974380000
C     -4.9494480000   -0.2917400000   -0.6080870000
C      5.4937770000  -17.2542510000   -0.5525010000
O      4.2793670000  -17.1388430000   -0.5163900000
C      6.2051410000  -18.5525790000   -0.4974450000
C      5.6396860000  -19.8178020000   -0.3981140000
C      6.4976990000  -20.9203590000   -0.3713420000
C      7.8850380000  -20.7306600000   -0.4387020000
C      8.4491940000  -19.4528470000   -0.5390890000
C      7.5940670000  -18.3428860000   -0.5738830000
C      7.8464780000  -16.8838920000   -0.6991570000
C      9.1037590000  -16.3253550000   -0.8624540000
C      9.3476170000  -14.9277240000   -1.0415360000
N      9.5796290000  -13.7986000000   -1.1935080000
C     10.3036660000  -17.1039170000   -0.8957340000
N     11.2959340000  -17.7084870000   -0.9272770000
C      6.5451630000  -16.2002900000   -0.6545110000
C     -1.6331280000   -5.6381760000   -0.9280640000
C     -2.3664300000   -6.8649050000   -0.8970470000
C     -1.6763450000   -8.0698250000   -0.8829480000
C     -0.2738650000   -8.0394090000   -0.8528320000
C      0.4503100000   -6.8228230000   -0.8408740000
C     -0.2286290000   -5.6103410000   -0.9108930000
C      1.9498710000   -7.0978840000   -0.7129470000
C      2.7940000000   -6.4266450000   -1.8164590000
C      2.4286420000   -6.8258540000   -3.2450650000
C      2.4653550000   -6.6972970000    0.7061240000
C      2.4108140000   -5.2179680000    1.0768210000
C      1.9843440000   -8.6251710000   -0.7885570000
C      0.6706830000   -9.1489780000   -0.8232400000
C      0.4268830000  -10.5300620000   -0.8149650000
C      1.5155990000  -11.3904000000   -0.7976700000
C      2.8409480000  -10.8615700000   -0.7636070000
C      3.0820910000   -9.4770480000   -0.7567260000
C     -5.1623790000   -1.6364000000   -0.7849650000
C      6.3599590000  -14.8275530000   -0.6780810000
C      3.7370350000  -11.9963390000   -0.7087200000
C      3.0130200000  -13.1940400000   -0.6844710000
C      1.5204680000  -12.9224690000   -0.7549630000
S      5.4330770000  -12.2545700000   -0.6949760000
C      5.1924360000  -14.0224160000   -0.6678900000
C      3.8203070000  -14.3308120000   -0.6693850000
C     -3.8805380000   -6.6086770000   -0.8673850000
C     -3.9015010000   -5.0894740000   -0.9010300000
C     -2.6086300000   -4.5694070000   -0.9309930000
C     -4.8855490000   -4.1003090000   -0.8560200000
C     -4.3519760000   -2.8010960000   -0.8089990000
S     -2.5846750000   -2.8492090000   -0.8921570000
C      0.9742910000  -13.5638450000   -2.0627250000
C      0.7746180000  -13.4031290000    0.5198800000
C     -4.5420640000   -7.0450000000    0.4777640000
C     -4.6153750000   -7.1242360000   -2.1392500000
C     -4.3040090000   -8.4636230000    0.9974050000
C     -4.8301260000   -8.6261120000   -2.3127230000
C     -0.5145560000  -13.3905810000   -2.3490570000
C      0.6995420000  -14.9138430000    0.7197580000
H     -6.9562980000    3.1638190000   -2.0521140000
H     -5.5543510000    5.2613810000   -1.9882610000
H     -3.2517540000    5.1759680000   -1.0613180000
H     -2.3008110000    3.0756470000   -0.1827270000
H      4.5536850000  -19.9224830000   -0.3449810000
H      6.0889920000  -21.9307050000   -0.2950630000
H      8.5471520000  -21.5988020000   -0.4136420000
H      9.5303030000  -19.3492630000   -0.5905650000
H     -2.1991960000   -9.0255100000   -0.8813810000
H      0.3014390000   -4.6571660000   -0.9422400000
H      3.8551910000   -6.6633270000   -1.6220400000
H      2.7072300000   -5.3327410000   -1.7083650000
H      2.5746930000   -7.9043190000   -3.4124340000
H      3.0560830000   -6.2867480000   -3.9699420000
H      1.3775560000   -6.5864360000   -3.4707570000
H      3.5069660000   -7.0535140000    0.7823090000
H      1.8911450000   -7.2783520000    1.4452610000
H      2.9456610000   -4.5842000000    0.3535750000
H      2.8875240000   -5.0614260000    2.0567690000
H      1.3772960000   -4.8497970000    1.1544670000
H     -0.5958050000  -10.9089090000   -0.8095210000
H      4.1039050000   -9.0926050000   -0.7142530000
H     -6.2066570000   -1.8423410000   -1.0578140000
H      7.2750720000  -14.2362430000   -0.7180280000
H      3.4911510000  -15.3661580000   -0.6670730000
H     -5.9624810000   -4.2754660000   -0.8319620000
H      1.2151250000  -14.6384920000   -2.0252930000
H      1.5613060000  -13.1572630000   -2.9023540000
H     -0.2450380000  -12.9851640000    0.4985000000
H      1.2691630000  -12.9374080000    1.3877930000
H     -5.6264250000   -6.8643550000    0.3724340000
H     -4.1980500000   -6.3386910000    1.2502150000
H     -4.0641330000   -6.7321060000   -3.0099410000
H     -5.5999850000   -6.6275800000   -2.1613810000
H     -4.6001860000   -9.2404180000    0.2805420000
H     -4.8956160000   -8.6216340000    1.9123470000
H     -3.2486550000   -8.6262220000    1.2614070000
H     -3.8882110000   -9.1909980000   -2.2787660000
H     -5.2937510000   -8.8212380000   -3.2927520000
H     -5.5051630000   -9.0397190000   -1.5509440000
H     -1.1428010000  -13.7432900000   -1.5167440000
H     -0.7979400000  -13.9756930000   -3.2372860000
H     -0.7773720000  -12.3420120000   -2.5524450000
H      0.1641230000  -15.1449750000    1.6537850000
H      1.6962100000  -15.3728300000    0.7890890000
H      0.1573120000  -15.4137870000   -0.0966250000