146
IDTT-TBTA.out: Geometry 22
C      1.2855600000    0.4946260000   -0.6396370000
C      0.4732130000    1.6598240000   -0.5769820000
C      0.7011790000    2.9791040000   -0.1595740000
C     -0.4330650000    3.7824910000   -0.3159580000
C     -1.5628140000    3.1164610000   -0.8591310000
S     -1.2017850000    1.4575270000   -1.1689470000
C     -2.6757440000    3.9726740000   -1.0030040000
C     -4.0886000000    3.8957370000   -1.5694860000
C     -5.0139340000    2.9725860000   -0.7627470000
C     -4.6892490000    2.5580190000    0.5335370000
C     -5.5469810000    1.7224180000    1.2525010000
C     -6.7576510000    1.2803040000    0.7034310000
C     -7.7045600000    0.4191360000    1.5048120000
C     -8.6585930000    1.2528110000    2.3716300000
C     -7.0822340000    1.7055030000   -0.5935900000
C     -6.2261600000    2.5349280000   -1.3169420000
C     -3.9673580000    3.4357450000   -3.0294160000
C     -3.9124800000    4.3266200000   -4.1047180000
C     -3.6681900000    3.8619700000   -5.4022580000
C     -3.4665330000    2.5018300000   -5.6632320000
C     -3.1241990000    1.9903670000   -7.0423700000
C     -1.6587700000    1.5414110000   -7.1422860000
C     -3.5388990000    1.6119040000   -4.5801670000
C     -3.7871110000    2.0677390000   -3.2898550000
C     -4.5417820000    5.3609160000   -1.3913930000
C     -3.5192430000    6.1374740000   -0.7763010000
C     -2.3845880000    5.2618660000   -0.5798940000
S     -0.7625750000    5.4778640000    0.0127090000
C     -3.7054000000    7.4945890000   -0.4689310000
C     -4.9272340000    8.0680200000   -0.7844490000
C     -5.3870710000    9.5212390000   -0.5558720000
C     -5.5269260000    9.8945690000    0.9308740000
C     -5.7272860000   11.2395740000    1.2806490000
C     -5.9071690000   11.6150370000    2.6094390000
C     -5.8852450000   10.6648870000    3.6423800000
C     -5.9797380000   11.0948720000    5.0878160000
C     -4.6217910000   11.5473750000    5.6451940000
C     -5.6975500000    9.3235650000    3.2870910000
C     -5.5257520000    8.9402590000    1.9530260000
C     -4.4461830000   10.4942200000   -1.2834040000
C     -4.7311180000   10.9702460000   -2.5685600000
C     -3.8702190000   11.8658620000   -3.2058240000
C     -2.6937180000   12.3080950000   -2.5867480000
C     -1.7510220000   13.2478710000   -3.2987470000
C     -0.7708620000   12.5049710000   -4.2161760000
C     -2.4016800000   11.8123490000   -1.3075750000
C     -3.2625440000   10.9234780000   -0.6645010000
C     -6.7765330000    9.4667910000   -1.1730610000
C     -7.0645640000    8.1924330000   -1.6384520000
C     -5.9450780000    7.2992770000   -1.4184150000
C     -5.7601160000    5.9388750000   -1.7200430000
S     -8.6420830000    8.0367580000   -2.3670580000
C     -8.9377870000    9.7431840000   -2.0520570000
C     -7.8439180000   10.3614610000   -1.3953770000
S     -8.1293680000   12.0374140000   -1.0816140000
C     -9.7187560000   11.9363190000   -1.8675100000
C     -9.9834610000   10.6295510000   -2.3228970000
C    -10.6656920000   12.9729760000   -2.0772810000
C      2.5995480000    0.1904970000   -0.3315070000
C    -10.7600100000   14.3086760000   -1.7451310000
C    -11.9632020000   15.0087450000   -2.2240710000
N    -12.0783660000   16.3657000000   -1.8693360000
C    -11.1280000000   17.0843290000   -1.1630230000
N    -10.0327430000   16.3786290000   -0.6857130000
C     -9.7726580000   15.0257160000   -0.9556610000
C      3.5764740000    1.1192920000    0.2256490000
N      4.8687690000    0.6172640000    0.4627430000
C      5.3055750000   -0.6496210000    0.1139710000
N      4.3561910000   -1.5227350000   -0.3892660000
C      3.0052400000   -1.2011350000   -0.6203960000
O    -12.8289110000   14.4756120000   -2.8981030000
O     -8.7479100000   14.5083020000   -0.5299540000
C     -8.9974640000   17.0779290000    0.1017400000
C     -7.9279300000   17.7042840000   -0.7819840000
C    -13.2815770000   17.0523630000   -2.3821830000
C    -13.0493330000   17.6602740000   -3.7618950000
S    -11.2895490000   18.7251280000   -0.8972730000
O      3.3409040000    2.2877210000    0.4997890000
C      5.8183540000    1.5834430000    1.0504870000
S      6.9035240000   -1.1012870000    0.2968360000
C      4.7732850000   -2.8751670000   -0.8098680000
O      2.2419520000   -2.0450850000   -1.0607740000
C      5.3093300000   -2.8766050000   -2.2377930000
C      6.5283560000    2.4192410000   -0.0057190000
H      0.7671510000   -0.3855620000   -1.0378780000
H      1.6664310000    3.2840290000    0.2325830000
H     -3.7510350000    2.8834680000    0.9854010000
H     -5.2590780000    1.3913000000    2.2541970000
H     -7.1217550000   -0.2596640000    2.1497390000
H     -8.2902020000   -0.2201580000    0.8231640000
H     -8.0949290000    1.8988090000    3.0635250000
H     -9.3231550000    0.6076340000    2.9688690000
H     -9.2886230000    1.9073820000    1.7476280000
H     -8.0144820000    1.3628340000   -1.0514290000
H     -6.4906380000    2.8219360000   -2.3362600000
H     -4.0554800000    5.3953360000   -3.9339780000
H     -3.6280200000    4.5783420000   -6.2274070000
H     -3.3312000000    2.7732500000   -7.7902030000
H     -3.7840930000    1.1421010000   -7.2933070000
H     -0.9781250000    2.3812420000   -6.9314850000
H     -1.4236810000    1.1447580000   -8.1430950000
H     -1.4366200000    0.7519410000   -6.4075690000
H     -3.3919630000    0.5416050000   -4.7507350000
H     -3.8503520000    1.3498120000   -2.4705580000
H     -2.9159890000    8.0770630000    0.0087480000
H     -5.7257010000   12.0083670000    0.5060980000
H     -6.0648410000   12.6702030000    2.8503240000
H     -6.3729630000   10.2651790000    5.6985850000
H     -6.7051110000   11.9205130000    5.1818900000
H     -3.8897130000   10.7251420000    5.6085370000
H     -4.7090600000   11.8881300000    6.6894800000
H     -4.2120130000   12.3794870000    5.0515300000
H     -5.6809650000    8.5571780000    4.0671870000
H     -5.3820560000    7.8853600000    1.7130600000
H     -5.6427530000   10.6499410000   -3.0746810000
H     -4.1297040000   12.2450480000   -4.1981640000
H     -1.1878940000   13.8405480000   -2.5587200000
H     -2.3379290000   13.9667260000   -3.8947910000
H     -0.1331910000   11.8183730000   -3.6360970000
H     -0.1151880000   13.2069560000   -4.7563040000
H     -1.3138590000   11.9015030000   -4.9609880000
H     -1.4940170000   12.1469170000   -0.7975710000
H     -3.0269840000   10.5843290000    0.3457700000
H     -6.5488250000    5.3576500000   -2.2005970000
H    -10.9142940000   10.3757250000   -2.8302840000
H    -11.5388450000   12.6353510000   -2.6463060000
H     -8.5559720000   16.3243360000    0.7632420000
H     -9.5087930000   17.8404920000    0.6986770000
H     -7.3967490000   16.9330960000   -1.3608930000
H     -7.1905160000   18.2324600000   -0.1570670000
H     -8.3775010000   18.4347400000   -1.4702310000
H    -13.5464580000   17.8251440000   -1.6528940000
H    -14.0710010000   16.2930930000   -2.4181880000
H    -12.2536820000   18.4187970000   -3.7207490000
H    -13.9692380000   18.1502270000   -4.1185660000
H    -12.7725230000   16.8819310000   -4.4883930000
H      6.5387400000    1.0067140000    1.6402730000
H      5.2283150000    2.2269820000    1.7121230000
H      3.8848370000   -3.5089010000   -0.7216240000
H      5.5387870000   -3.2128010000   -0.1030770000
H      4.5345610000   -2.5436850000   -2.9454950000
H      5.6248580000   -3.8918820000   -2.5252030000
H      6.1826520000   -2.2141950000   -2.3230020000
H      7.1201300000    1.7773390000   -0.6753330000
H      7.2136730000    3.1280220000    0.4859410000
H      5.8050560000    2.9979530000   -0.6003180000