157
IPTBO-4Cl.out: Geometry 40
C     -0.2783220000   -2.2877740000   -1.9787220000
C     -1.2628880000   -2.1283780000   -1.0144840000
C     -2.6947800000   -1.9933930000   -1.2946650000
C     -3.3846250000   -1.7869080000    0.0054050000
C     -2.4234730000   -1.8078460000    1.0319430000
C     -1.0739770000   -2.0361920000    0.4557530000
C     -4.7250930000   -1.5726350000    0.3364450000
C     -5.0685340000   -1.3747900000    1.6805870000
C     -4.0887750000   -1.3917420000    2.6959870000
C     -2.7487760000   -1.6157240000    2.3648020000
Cl    -4.5252860000   -1.1357590000    4.3526260000
Cl    -6.7331820000   -1.1023340000    2.0780960000
O     -0.0487640000   -2.1247050000    1.1140850000
C     -3.3421510000   -2.0270630000   -2.5203940000
C     -4.7577250000   -1.8753730000   -2.6481150000
C     -2.6803170000   -2.2071280000   -3.7756420000
N     -5.9074330000   -1.7549850000   -2.7701230000
N     -2.1626270000   -2.3505940000   -4.8072340000
C     15.5092320000    2.5810680000   -3.9182450000
C     15.7047480000    3.6262830000   -3.0498760000
C     14.7744380000    4.3842380000   -2.2182970000
C     15.5651190000    4.9642090000   -1.1110220000
C     16.9360000000    4.7888520000   -1.3927800000
C     17.0950100000    4.0516590000   -2.6791950000
C     15.1758070000    5.5872410000    0.0746740000
C     16.1669280000    5.9945680000    0.9762020000
C     17.5369030000    5.8102220000    0.6844980000
C     17.9253770000    5.2126870000   -0.5203170000
Cl    18.7506770000    6.3071400000    1.8128370000
Cl    15.6716530000    6.7208310000    2.4682710000
O     18.1305410000    3.7937690000   -3.2544650000
C     13.4603060000    4.6963920000   -2.5133820000
C     12.6512240000    5.5079320000   -1.6602110000
C     12.8282220000    4.2898360000   -3.7287750000
N     11.9788720000    6.1539970000   -0.9662340000
N     12.3038920000    3.9975540000   -4.7231780000
C      1.1290440000   -2.3541070000   -1.9160950000
S      1.9546810000   -2.4710340000   -3.5009280000
C      3.4940500000   -2.3897850000   -2.7347560000
C      3.3610590000   -2.2864820000   -1.3139940000
C      2.0461900000   -2.2800480000   -0.8532520000
C      4.8669010000   -2.3031070000   -3.0149920000
C      5.5294370000   -2.1089200000   -1.7675270000
N      4.6128810000   -2.1464160000   -0.7403550000
S      5.9755180000   -2.2588840000   -4.3695760000
C      7.2802880000   -1.9233630000   -3.2592480000
C      6.9101480000   -1.8521470000   -1.9215770000
C      8.6536880000   -1.5078210000   -3.4403120000
C      9.1126840000   -1.0476180000   -2.1738680000
C      8.0526110000   -1.2877730000   -1.0767770000
C      9.4675150000   -1.4508470000   -4.5836790000
C     10.7267490000   -0.8864210000   -4.4482510000
C     11.1374940000   -0.3313890000   -3.2047410000
C     10.3476570000   -0.4368880000   -2.0491340000
C     11.7987100000   -0.6668600000   -5.5341480000
C     12.7681850000    0.2430950000   -4.7807890000
C     12.3723730000    0.3681400000   -3.4518050000
C     13.9344930000    0.9640550000   -5.0708500000
C     14.3945840000    1.6972600000   -3.9713750000
S     13.4009840000    1.3939050000   -2.5389880000
C     12.5713060000   -1.9528700000   -5.8730500000
C     11.1452640000    0.0061320000   -6.7422340000
C      7.5481980000    0.0268520000   -0.4497920000
C      8.6397900000   -2.3009990000   -0.0888240000
C      4.9121080000   -2.1551950000    0.6830520000
C      4.4290230000   -3.3772480000    1.4834240000
C      5.1254590000   -4.6964790000    1.1107620000
C      4.9307630000   -5.1953860000   -0.3231530000
C      4.6415570000   -3.0055770000    2.9656960000
C      4.3215480000   -4.0892590000    3.9909510000
C      7.2544780000    1.1069870000   -1.2965760000
C      6.6392250000    2.2580700000   -0.8074710000
C      6.2891030000    2.3737440000    0.5461790000
C      6.6013780000    1.3026850000    1.3919130000
C      7.2221860000    0.1503590000    0.9058500000
C      9.5601310000   -1.9082960000    0.8949280000
C     10.1626220000   -2.8512640000    1.7278310000
C      9.8806710000   -4.2196900000    1.6049510000
C      8.9708530000   -4.6088470000    0.6113180000
C      8.3608930000   -3.6680620000   -0.2180730000
C     13.6183780000   -1.8874880000   -6.8082350000
C     14.4549540000   -2.9773760000   -7.0283740000
C     14.2699020000   -4.1867680000   -6.3355910000
C     13.1991440000   -4.2612830000   -5.4383310000
C     12.3647430000   -3.1621010000   -5.2030180000
C     10.6421080000   -0.7515020000   -7.8064940000
C      9.9145670000   -0.1409680000   -8.8323320000
C      9.6678390000    1.2379870000   -8.8213780000
C     10.1830930000    1.9890350000   -7.7538230000
C     10.9124430000    1.3894380000   -6.7300670000
C      5.6420810000    3.6209240000    1.0977170000
C      6.6589150000    4.5630850000    1.7560000000
C     10.5108620000   -5.2359480000    2.5284340000
C      9.5120420000   -5.8759520000    3.5003640000
C     15.2116480000   -5.3498660000   -6.5472700000
C     15.1961810000   -5.9181290000   -7.9718590000
C      8.9151570000    1.9212150000   -9.9372150000
C      9.8491470000    2.6353430000  -10.9234820000
H     -0.6444580000   -2.3467270000   -3.0029940000
H     -5.5200850000   -1.5444120000   -0.4039630000
H     -1.9755440000   -1.6327040000    3.1341410000
H     16.3562350000    2.3467930000   -4.5755890000
H     14.1330080000    5.7546950000    0.3357910000
H     18.9797740000    5.0637400000   -0.7583350000
H      1.7041680000   -2.1982330000    0.1751330000
H      9.1131900000   -1.8130700000   -5.5501990000
H     10.6832200000   -0.0134560000   -1.1013630000
H     14.4166310000    1.0249580000   -6.0460830000
H      4.5037360000   -1.2365450000    1.1338760000
H      6.0009890000   -2.0939930000    0.7718440000
H      3.3443210000   -3.5051490000    1.3188130000
H      4.7434890000   -5.4733090000    1.7920440000
H      6.2035820000   -4.6058510000    1.3316540000
H      3.8627170000   -5.2582400000   -0.5852770000
H      5.3627790000   -6.2021350000   -0.4382070000
H      5.4114490000   -4.5496880000   -1.0698690000
H      4.0272620000   -2.1152100000    3.1820370000
H      5.6911050000   -2.6824950000    3.0985730000
H      3.2981430000   -4.4800270000    3.8638940000
H      4.4002990000   -3.6811280000    5.0111940000
H      5.0129250000   -4.9422740000    3.9251710000
H      7.4915340000    1.0349580000   -2.3600430000
H      6.4063100000    3.0774110000   -1.4933110000
H      6.3354410000    1.3613530000    2.4512090000
H      7.4308230000   -0.6656030000    1.5967060000
H      9.8108010000   -0.8532380000    1.0214850000
H     10.8697980000   -2.5172680000    2.4915410000
H      8.7281010000   -5.6672850000    0.4786090000
H      7.6598500000   -4.0027200000   -0.9830800000
H     13.7910490000   -0.9608520000   -7.3593090000
H     15.2790740000   -2.8819810000   -7.7413190000
H     13.0166640000   -5.1919090000   -4.8933880000
H     11.5594660000   -3.2529460000   -4.4729230000
H     10.8171260000   -1.8292870000   -7.8336740000
H      9.5233680000   -0.7507090000   -9.6520710000
H     10.0014970000    3.0670840000   -7.7156690000
H     11.2925560000    2.0103890000   -5.9169710000
H      4.8782510000    3.3325060000    1.8389040000
H      5.1109470000    4.1519030000    0.2905970000
H      7.2094360000    4.0457090000    2.5581120000
H      6.1624960000    5.4422710000    2.1964390000
H      7.4005120000    4.9172660000    1.0232410000
H     11.3186980000   -4.7497140000    3.0986340000
H     10.9886200000   -6.0286750000    1.9267780000
H      9.0230260000   -5.1132900000    4.1271780000
H     10.0178720000   -6.5926810000    4.1670300000
H      8.7192550000   -6.4181850000    2.9609060000
H     14.9636040000   -6.1481670000   -5.8294260000
H     16.2368080000   -5.0202280000   -6.2983390000
H     14.1906630000   -6.2745560000   -8.2461980000
H     15.8947170000   -6.7639410000   -8.0697330000
H     15.4918570000   -5.1573600000   -8.7111800000
H      8.2158050000    2.6548730000   -9.5009210000
H      8.2982490000    1.1838980000  -10.4778140000
H     10.4852430000    3.3665880000  -10.3995820000
H      9.2783850000    3.1723260000  -11.6978500000
H     10.5172970000    1.9171330000  -11.4256090000