97
N3.out: Geometry 122
C      4.1606410000    0.5799770000    0.1964650000
O      3.9516910000    1.4763650000    0.9929820000
C      5.0041910000    0.6846510000   -1.0273950000
C      5.6359110000    1.8164130000   -1.5331060000
C      6.3982630000    1.6690200000   -2.6885240000
F      7.0212720000    2.7091320000   -3.2380220000
C      6.5240150000    0.4099080000   -3.3038570000
F      7.2697030000    0.3130090000   -4.4012000000
C      5.8917960000   -0.7208720000   -2.7956720000
C      5.1122560000   -0.5786890000   -1.6401700000
C      4.3080520000   -1.5534160000   -0.8657510000
C      4.0886680000   -2.8700480000   -1.2345030000
C      3.2464220000   -3.7703190000   -0.5074330000
N      2.5743970000   -4.5263700000    0.0660600000
C      4.6660350000   -3.4533370000   -2.4053310000
N      5.1230660000   -3.9474500000   -3.3527200000
C      3.7441980000   -0.8447950000    0.2858640000
C      3.1183010000   -1.4567440000    1.3550140000
C      2.3627350000   -0.9990560000    2.4680590000
S      2.3267280000   -2.2032570000    3.7882280000
C      1.2590800000   -1.2264330000    4.7177540000
C      0.9202460000   -0.0445200000    4.0211450000
C      1.5182390000    0.1036830000    2.7498370000
C      1.1334030000    1.2176680000    1.8162700000
C      0.5380880000    0.7365310000    0.4860670000
S     -0.2356590000    0.9599000000    4.9110450000
C     -0.2545190000   -0.2210850000    6.1986630000
C      0.5976020000   -1.3105610000    5.9604000000
N      0.4633370000   -2.2425470000    6.9743530000
C      0.9117420000   -3.6182660000    6.7698310000
C      2.4187960000   -3.7927990000    6.9056220000
C     -0.4736290000   -1.7520890000    7.8840760000
C     -0.9476920000   -0.4889490000    7.4017170000
C     -2.0171790000    0.1968730000    8.0641910000
N     -2.5788780000    1.3428630000    7.7037550000
S     -3.8096540000    1.6328790000    8.7724360000
N     -3.6485490000    0.2854440000    9.7212430000
C     -2.6368330000   -0.4144900000    9.2275890000
C     -2.1148010000   -1.6484140000    9.7333000000
C     -1.0146240000   -2.2997650000    9.0989260000
N     -0.6924130000   -3.4474570000    9.8356620000
C      0.6315900000   -4.0637400000    9.9701410000
C      0.6448030000   -5.5626750000    9.7026660000
C     -1.5964590000   -3.5359500000   10.8880090000
C     -2.4711420000   -2.4395730000   10.8506810000
S     -3.6080650000   -2.4143720000   12.1707220000
C     -2.8979400000   -3.9074770000   12.7960930000
C     -1.8510960000   -4.3960940000   11.9844780000
S     -1.2914540000   -5.9270810000   12.5648900000
C     -2.4271180000   -5.8758400000   13.9328330000
C     -3.2321390000   -4.7235680000   13.9058630000
C     -4.4075460000   -4.4374500000   14.7987190000
C     -4.3184520000   -3.0888260000   15.5272720000
C     -2.4550940000   -7.0640380000   14.7289330000
C     -2.6479220000   -7.2280010000   16.0816340000
C     -2.7332730000   -8.5048960000   16.7975340000
C     -3.0297500000   -9.7438360000   16.2612690000
C     -3.1126930000  -10.9312550000   17.0551110000
N     -3.1833970000  -11.9026710000   17.6892160000
C     -3.3055050000   -9.9533020000   14.8728050000
N     -3.5286680000  -10.1627510000   13.7517520000
C     -2.4909240000   -8.2273910000   18.2322450000
C     -2.3963870000   -9.0751440000   19.3446130000
C     -2.1312890000   -8.5003580000   20.5842350000
F     -2.0218450000   -9.2688620000   21.6632960000
C     -1.9680580000   -7.1112310000   20.7401620000
F     -1.7188510000   -6.6335990000   21.9558000000
C     -2.0642500000   -6.2627350000   19.6435110000
C     -2.3247630000   -6.8396470000   18.4044680000
C     -2.4560790000   -6.1472690000   17.0952990000
O     -2.3387450000   -4.9537780000   16.9064360000
H      5.5387540000    2.7875050000   -1.0448430000
H      6.0324700000   -1.6637470000   -3.3196120000
H      3.2466750000   -2.5411020000    1.3815290000
H      2.0242380000    1.8312910000    1.6181980000
H      0.4016350000    1.8568770000    2.3352900000
H      1.2699820000    0.1662760000   -0.1040500000
H      0.2162850000    1.5974400000   -0.1192250000
H     -0.3361710000    0.0880430000    0.6501760000
H      0.5893670000   -3.9248520000    5.7608130000
H      0.3618010000   -4.2572690000    7.4646900000
H      2.7760820000   -3.5047810000    7.9056110000
H      2.9614620000   -3.1745270000    6.1775430000
H      2.6965640000   -4.8418240000    6.7209760000
H      0.9869830000   -3.8625320000   10.9951710000
H      1.3188680000   -3.5308720000    9.3064860000
H     -0.0378800000   -6.1010230000   10.3724270000
H      1.6551890000   -5.9654780000    9.8720500000
H      0.3381340000   -5.8030650000    8.6740850000
H     -4.5326650000   -5.2495290000   15.5256850000
H     -5.3075870000   -4.4503700000   14.1561410000
H     -5.2092080000   -2.9347860000   16.1557780000
H     -4.2611530000   -2.2469330000   14.8198520000
H     -3.4311230000   -3.0614670000   16.1712700000
H     -2.2174240000   -7.9694760000   14.1629030000
H     -2.5150290000  -10.1557890000   19.2927770000
H     -1.9314870000   -5.1849700000   19.7536020000