88
PCBM.out: Geometry 9
C      0.3677090000   -2.4309250000    1.2386810000
C      0.7780380000   -2.2968810000   -0.1414060000
C      1.5328210000   -1.0151690000   -0.2843750000
C      1.3037510000   -0.2879850000    0.9979510000
C      0.6925530000   -1.1985910000    1.9366350000
C     -0.1404260000   -0.7297360000    2.9590680000
C     -0.4329130000    0.6852090000    3.0412700000
C      0.1235810000    1.5612830000    2.0992090000
C      1.0076970000    1.0651830000    1.0604810000
C      0.7332840000    1.8359790000   -0.1692290000
C      0.7673290000    1.2247490000   -1.4140820000
C      1.2333120000   -0.1788560000   -1.6240370000
C      0.2340530000   -0.7820420000   -2.5533810000
C     -0.3023890000   -2.0496730000   -2.3737700000
C     -0.0248800000   -2.8218180000   -1.1446730000
C     -1.2355330000   -3.5462430000   -0.7989820000
C     -2.2522600000   -3.2397850000   -1.7937370000
C     -1.6772010000   -2.3166260000   -2.7595050000
C     -2.4718070000   -1.3024440000   -3.3100140000
C     -1.9204840000    0.0261610000   -3.4713550000
C     -0.6021800000    0.2760020000   -3.0730110000
C     -0.2743000000    1.5075980000   -2.3742510000
C     -1.2767560000    2.4459530000   -2.1003100000
C     -1.2982530000    3.1046440000   -0.8122480000
C     -0.3160970000    2.7923140000    0.1381330000
C     -0.6907260000    2.6271980000    1.5350440000
C     -2.0237710000    2.7748250000    1.9278720000
C     -2.6034770000    1.8558530000    2.8981770000
C     -1.8236950000    0.8323380000    3.4435600000
C     -2.3883490000   -0.5009660000    3.6127610000
C     -3.7077500000   -0.7564500000    3.2264520000
C     -4.5179790000    0.3115130000    2.6599470000
C     -3.9767570000    1.5910510000    2.5004630000
C     -4.2488630000    2.3518290000    1.2872250000
C     -3.0444780000    3.0861700000    0.9360430000
C     -2.6888740000    3.2495900000   -0.4060350000
C     -3.5262940000    2.6771520000   -1.4526760000
C     -2.6514980000    2.1792550000   -2.5031260000
C     -2.9665420000    0.9961330000   -3.1751010000
C     -4.1709410000    0.2573830000   -2.8265750000
C     -3.8640250000   -1.1653700000   -2.9093810000
C     -4.4130210000   -2.0532970000   -1.9799020000
C     -3.5920710000   -3.1160130000   -1.4144580000
C     -3.9725130000   -3.2854970000   -0.0180910000
C     -5.0184630000   -2.3203430000    0.2816350000
C     -5.2903150000   -1.5590030000   -0.9313530000
C     -5.5823030000   -0.1939330000   -0.8492910000
C     -5.0109550000    0.7328660000   -1.8153000000
C     -4.6832290000    1.9678220000   -1.1152970000
C     -5.0516870000    1.8024370000    0.2829210000
C     -5.6091840000    0.4675400000    0.4472160000
C     -5.3487830000   -0.2621850000    1.6105030000
C     -5.0495940000   -1.6847110000    1.5269300000
C     -4.0357520000   -1.9910750000    2.5253430000
C     -3.0320710000   -2.9222060000    2.2391350000
C     -2.9985480000   -3.5820840000    0.9400040000
C     -1.6052420000   -3.7215550000    0.5415700000
C     -0.7836230000   -3.1471070000    1.5853530000
C     -1.6589420000   -2.6527180000    2.6394260000
C     -1.3445150000   -1.4696240000    3.3118090000
C      2.6083720000   -0.7121890000   -1.2972590000
C      3.1396830000   -1.8857160000   -2.1169730000
C      3.6519220000    0.3057460000   -0.9152050000
C      4.3437080000    0.2180160000    0.2996730000
C      5.3353440000    1.1491300000    0.6200240000
C      5.6486400000    2.1763720000   -0.2740970000
C      4.9650800000    2.2688750000   -1.4908640000
C      3.9733140000    1.3382330000   -1.8074430000
H      5.8625430000    1.0728100000    1.5733970000
H      6.4211330000    2.9063010000   -0.0204180000
H      4.0970620000   -0.5777530000    1.0049410000
H      3.4290230000    1.4183970000   -2.7515640000
H      5.2020070000    3.0701400000   -2.1948300000
C      3.9434310000   -2.8716970000   -1.2720720000
H      3.7597060000   -1.4764780000   -2.9321370000
H      2.3058390000   -2.4153990000   -2.5995470000
H      3.3115500000   -3.2613350000   -0.4585330000
C      4.4741820000   -4.0459710000   -2.0848260000
H      4.7831030000   -2.3581840000   -0.7775570000
H      5.1837910000   -3.7240470000   -2.8652250000
H      3.6571280000   -4.5570760000   -2.6260410000
C      5.1588810000   -5.0841430000   -1.2233770000
O      5.1540170000   -5.1041830000   -0.0165450000
O      5.7791150000   -6.0118810000   -1.9749220000
C      6.4514110000   -7.0487790000   -1.2613850000
H      6.9511570000   -7.6688850000   -2.0161000000
H      5.7356580000   -7.6539720000   -0.6833070000
H      7.1889990000   -6.6265430000   -0.5625640000