145
TPIC-4Cl.out: Geometry 73
C      0.3022130000   -3.0806580000   -1.4786880000
C     -0.3836370000   -3.7339690000   -0.4656560000
C     -1.4410320000   -4.7340060000   -0.6697820000
C     -1.9173890000   -5.1641370000    0.6694770000
C     -1.1956280000   -4.4624160000    1.6487060000
C     -0.2171380000   -3.5559580000    1.0058510000
C     -2.8901770000   -6.0812630000    1.0770230000
C     -3.1123240000   -6.2676420000    2.4472960000
C     -2.3775080000   -5.5510750000    3.4167800000
C     -1.4050600000   -4.6341980000    3.0078490000
Cl    -2.6639580000   -5.7940590000    5.1071920000
Cl    -4.3199640000   -7.4086970000    2.9334590000
O      0.5434840000   -2.8337450000    1.6293870000
C     -1.9501500000   -5.2248580000   -1.8609390000
C     -2.9956220000   -6.1994900000   -1.9080260000
C     -1.5046090000   -4.8194870000   -3.1574430000
N     -3.8457870000   -6.9901380000   -1.9649360000
N     -1.1636030000   -4.5136670000   -4.2261420000
C      1.3205180000   -2.0985410000   -1.4496940000
S      1.8857300000   -1.4635180000   -3.0205410000
C      2.9621220000   -0.3921890000   -2.2243550000
C      2.9104730000   -0.5186040000   -0.8323920000
C      1.9979070000   -1.4696450000   -0.3906310000
C     12.8253750000    7.7047960000   -5.5536740000
C     13.8792890000    8.2957990000   -4.8788320000
C     15.0938740000    8.8553530000   -5.4719150000
C     15.8949830000    9.4386210000   -4.3632170000
C     15.2133380000    9.2223350000   -3.1509360000
C     13.9481840000    8.4959130000   -3.4139650000
C     17.1261130000   10.0985660000   -4.3384460000
C     17.6377060000   10.5335360000   -3.1077190000
C     16.9300590000   10.3215780000   -1.9041040000
C     15.7037070000    9.6508150000   -1.9290070000
Cl    17.5597570000   10.8781460000   -0.3904560000
Cl    19.1694970000   11.3414650000   -3.0884200000
O     13.1398130000    8.1501310000   -2.5686840000
C     15.4836710000    8.8456340000   -6.8023560000
C     16.6883090000    9.4583740000   -7.2693760000
C     14.7349000000    8.2113380000   -7.8423230000
N     17.6556270000    9.9498280000   -7.6868500000
N     14.1471990000    7.6954940000   -8.7032510000
C      3.9094950000    0.6289060000   -2.6047800000
C      4.4470480000    1.1625880000   -1.3977380000
C      3.8795590000    0.4457640000   -0.1632100000
C      4.3288520000    1.0860900000   -3.8660810000
C      5.3094860000    2.0631100000   -3.9072150000
C      5.8196740000    2.6157700000   -2.6994010000
C      5.3790880000    2.1856520000   -1.4389120000
C      6.0540410000    2.6478230000   -5.1373680000
C      6.9715240000    3.6595630000   -4.4462350000
C      6.8247420000    3.5801660000   -3.0663110000
C      7.9994460000    4.5726430000   -4.7833880000
C      8.6285140000    5.1299930000   -3.6306950000
S      7.9212740000    4.5630050000   -2.1373690000
N      8.6550750000    5.0092200000   -5.9195090000
C      9.6985010000    5.8244030000   -5.5017000000
C      9.7085010000    5.9048530000   -4.0789950000
C     10.7657100000    6.4960430000   -6.0943870000
C     11.6276940000    7.0795560000   -5.1369930000
S     11.0510950000    6.8044170000   -3.4699000000
C      3.1630960000    1.4250180000    0.7882360000
C      8.1901280000    4.8822990000   -7.2938630000
C      7.1715130000    5.9540060000   -7.6649680000
C      4.9406050000   -0.3468450000    0.6246950000
C      6.8614120000    1.4972500000   -5.7693150000
C      5.1028910000    3.3703770000   -6.1080320000
C      6.3020730000   -0.3410350000    0.3120050000
C      7.2321330000   -0.9578690000    1.1579780000
C      6.8338730000   -1.5995230000    2.3347820000
C      5.4563960000   -1.6646770000    2.6058920000
C      4.5296990000   -1.0529720000    1.7695680000
C      1.8131360000    1.7512920000    0.6107450000
C      1.1419650000    2.5484100000    1.5404320000
C      1.7928900000    3.0414070000    2.6799330000
C      3.1619110000    2.7713290000    2.8150110000
C      3.8369730000    1.9794230000    1.8868860000
C      4.2352490000    4.3465570000   -5.5936550000
C      3.4187460000    5.1011700000   -6.4345000000
C      3.4281750000    4.9033020000   -7.8242450000
C      4.2807960000    3.9149260000   -8.3315940000
C      5.1106330000    3.1660180000   -7.4933750000
C      8.2481370000    1.3914480000   -5.5995550000
C      8.9532680000    0.2909930000   -6.0931410000
C      8.3056350000   -0.7445930000   -6.7763130000
C      6.9170600000   -0.6355940000   -6.9525810000
C      6.2101040000    0.4588460000   -6.4576440000
C      7.8356940000   -2.1974420000    3.2932840000
C      7.9374800000   -3.7234510000    3.2089140000
C      1.0537740000    3.8344010000    3.7315780000
C      1.2020970000    5.3507620000    3.5739970000
C      9.0796740000   -1.9099050000   -7.3446380000
C      9.6317910000   -1.6200150000   -8.7497280000
C      2.5943040000    5.7575550000   -8.7512100000
C      3.4406480000    6.7449520000   -9.5661780000
H      0.0095880000   -3.3543880000   -2.4921270000
H     -3.4882790000   -6.6617790000    0.3807750000
H     -0.8218810000   -4.0672460000    3.7345310000
H      1.7742220000   -1.7255990000    0.6397150000
H     12.9127960000    7.6802330000   -6.6400900000
H     17.7087040000   10.2953310000   -5.2350000000
H     15.1460830000    9.4638920000   -1.0105190000
H      3.9039960000    0.6579710000   -4.7740740000
H      5.7818070000    2.6232180000   -0.5240480000
H     10.9751850000    6.5581140000   -7.1626380000
H      7.7665090000    3.8753940000   -7.4137670000
H      9.0753390000    4.9418560000   -7.9446360000
H      6.2779040000    5.8840680000   -7.0279900000
H      6.8454930000    5.8281900000   -8.7078570000
H      7.6122220000    6.9576900000   -7.5529530000
H      6.6596720000    0.1682750000   -0.5822070000
H      8.2947460000   -0.9090710000    0.9018760000
H      5.1056080000   -2.1758410000    3.5070480000
H      3.4737820000   -1.0801970000    2.0436790000
H      1.2648650000    1.3464770000   -0.2417290000
H      0.0797450000    2.7630930000    1.3918790000
H      3.7039740000    3.1566820000    3.6834570000
H      4.8889510000    1.7439110000    2.0534250000
H      4.2115110000    4.5309840000   -4.5167470000
H      2.7605270000    5.8603760000   -6.0038000000
H      4.3054600000    3.7247020000   -9.4087920000
H      5.7751250000    2.4240840000   -7.9352050000
H      8.7923190000    2.1644210000   -5.0577260000
H     10.0328930000    0.2358170000   -5.9277910000
H      6.3792610000   -1.4284830000   -7.4803030000
H      5.1318750000    0.5033430000   -6.6168270000
H      7.5546160000   -1.9094330000    4.3210950000
H      8.8250900000   -1.7500480000    3.1066750000
H      6.9675800000   -4.1996640000    3.4238190000
H      8.6695250000   -4.1100390000    3.9343430000
H      8.2521270000   -4.0445650000    2.2034320000
H      1.4223700000    3.5351650000    4.7272040000
H     -0.0141880000    3.5627080000    3.7035410000
H      2.2574300000    5.6564780000    3.6529850000
H      0.6354030000    5.8881000000    4.3496380000
H      0.8309090000    5.6850270000    2.5919980000
H      8.4297370000   -2.8001220000   -7.3743430000
H      9.9147490000   -2.1580820000   -6.6690530000
H      8.8185320000   -1.3721430000   -9.4497070000
H     10.1784660000   -2.4873400000   -9.1531550000
H     10.3226450000   -0.7619860000   -8.7313650000
H      1.8453570000    6.3108990000   -8.1617740000
H      2.0298820000    5.1063260000   -9.4415550000
H      4.0045870000    7.4229820000   -8.9055500000
H      2.8084220000    7.3598060000  -10.2268180000
H      4.1709580000    6.2137040000  -10.1972280000