122
Y14.out: Geometry 33
C      0.0781170000   -2.8452290000   -1.0007280000
O     -0.5636310000   -3.8576860000   -1.2275800000
C      1.3827610000   -2.4945110000   -1.6224000000
C      2.1221280000   -3.2505570000   -2.5212450000
C      3.3312800000   -2.7050810000   -2.9516180000
C      3.7801730000   -1.4562360000   -2.5127380000
C      3.0209610000   -0.7100840000   -1.6070740000
C      1.8055010000   -1.2377260000   -1.1460330000
C      0.7988870000   -0.7322590000   -0.1785030000
C      0.8893030000    0.4852270000    0.4801080000
C      1.9440680000    1.4211450000    0.2469380000
N      2.7803920000    2.2079630000    0.0661030000
C     -0.0636340000    0.9441240000    1.4415260000
N     -0.8201400000    1.3397090000    2.2316820000
C     -0.2606250000   -1.7391120000   -0.0790240000
C     -1.3801810000   -1.6674660000    0.7331410000
C     -2.5006320000   -2.4981860000    0.9549850000
S     -2.8524400000   -4.0406560000    0.1295300000
C     -4.3123430000   -4.2132780000    1.0378670000
C     -4.5120810000   -3.1457260000    1.9392660000
C     -3.5099930000   -2.1653190000    1.9031950000
C     -3.5319940000   -0.9643670000    2.8095110000
C     -3.2419120000   -1.3347260000    4.2727720000
S     -5.9835170000   -3.3157670000    2.9074290000
C     -6.3143210000   -4.8265660000    2.0935120000
C     -5.3506070000   -5.1639310000    1.1324620000
N     -5.7063460000   -6.3379080000    0.4945070000
C     -5.1208280000   -6.6450140000   -0.8083110000
C     -6.0488970000   -6.4343810000   -2.0168780000
C     -6.9096160000   -6.7817880000    1.0605560000
C     -7.3096930000   -5.8233750000    2.0540640000
C     -8.5726350000   -5.9510300000    2.6981470000
N     -9.1825710000   -5.1730540000    3.6044120000
N    -10.3569280000   -5.7698680000    3.7785770000
C    -11.3950160000   -5.1672170000    4.6029350000
C    -12.3288280000   -4.2847780000    3.7800820000
N    -10.5861220000   -6.8606260000    3.0563920000
C     -9.4530700000   -7.0101790000    2.3518210000
C     -9.0359170000   -8.0142950000    1.4287420000
C     -7.7430840000   -7.9237340000    0.8069350000
N     -7.5592060000   -9.0712120000    0.0209030000
C     -6.3151380000   -9.6783300000   -0.4439310000
C     -5.3433800000  -10.1428190000    0.6554160000
C     -8.7017190000   -9.8420110000    0.1291540000
C     -9.6241940000   -9.2168080000    0.9803680000
S    -11.0888920000  -10.1411250000    1.2090550000
C    -10.4518120000  -11.3927210000    0.1355320000
C     -9.1764730000  -11.0740220000   -0.3750640000
S     -8.6401990000  -12.2696350000   -1.4990110000
C    -10.1240870000  -13.2210130000   -1.2602630000
C    -10.9993360000  -12.6057080000   -0.3434320000
C    -12.3947320000  -13.0543400000   -0.0047830000
C    -12.6128600000  -13.3270380000    1.4909740000
C    -10.2904040000  -14.3287000000   -2.1418810000
C    -11.0441990000  -15.4796000000   -2.1068050000
C    -11.7107870000  -16.2398490000   -1.0605430000
C    -11.3662410000  -16.2598150000    0.2794680000
C    -12.0678950000  -17.0504260000    1.2395290000
N    -12.6595420000  -17.6716560000    2.0237810000
C    -10.2239340000  -15.5631230000    0.7753310000
N     -9.2861380000  -15.0171190000    1.1912840000
C    -12.6458990000  -17.1833490000   -1.7205490000
C    -13.6321900000  -18.0420200000   -1.2155680000
C    -14.3241820000  -18.8718460000   -2.1031920000
C    -14.0190610000  -18.8563830000   -3.4691030000
C    -13.0440590000  -18.0110010000   -3.9991230000
C    -12.3834760000  -17.1783290000   -3.1074220000
C    -11.3352750000  -16.1647170000   -3.4124110000
O    -10.8526380000  -15.9187810000   -4.4982100000
F    -14.6857330000  -19.6743370000   -4.2872820000
F      4.0918470000   -3.3954370000   -3.8050320000
C     -5.9552330000  -11.2048360000    1.5987160000
C     -6.7040390000  -10.6545210000    2.8146950000
C     -4.0745740000  -10.6658500000   -0.0311370000
C     -6.5615220000   -4.9829540000   -2.1703970000
C     -7.7848350000   -4.5963890000   -1.3376400000
C     -5.2857510000   -6.8643820000   -3.2758870000
H      1.7758210000   -4.2224010000   -2.8745000000
H      4.7300520000   -1.0780450000   -2.8938150000
H      3.3959000000    0.2545030000   -1.2749380000
H     -1.4335100000   -0.7780710000    1.3553990000
H     -4.5365220000   -0.5115310000    2.7421210000
H     -2.8268760000   -0.1894860000    2.4826990000
H     -3.9548160000   -2.0843240000    4.6471430000
H     -3.3147230000   -0.4426740000    4.9123030000
H     -2.2299080000   -1.7560460000    4.3773440000
H     -4.7073420000   -7.6599390000   -0.8014650000
H     -4.2508510000   -5.9845950000   -0.9194190000
H     -6.9260440000   -7.0944640000   -1.8938420000
H    -10.8710800000   -4.5879280000    5.3747960000
H    -11.9401410000   -5.9905670000    5.0851550000
H    -11.7563190000   -3.5011650000    3.2617500000
H    -13.0686770000   -3.8000450000    4.4353390000
H    -12.8651780000   -4.8836370000    3.0288090000
H     -5.8136280000   -9.0016470000   -1.1397310000
H     -6.6039700000  -10.5491890000   -1.0482550000
H     -5.0650750000   -9.2584520000    1.2564850000
H    -12.6608020000  -13.9370680000   -0.5973010000
H    -13.0848310000  -12.2530310000   -0.3250640000
H    -13.6366660000  -13.6879570000    1.6718040000
H    -12.4637910000  -12.4148040000    2.0874720000
H    -11.9126950000  -14.0774040000    1.8768990000
H     -9.7652040000  -14.2249280000   -3.1020500000
H    -13.8798830000  -18.0743310000   -0.1557730000
H    -15.1039430000  -19.5469020000   -1.7460570000
H    -12.8057770000  -18.0059800000   -5.0641710000
H     -5.1386490000  -11.8503640000    1.9632310000
H     -6.6153170000  -11.8718780000    1.0170390000
H     -6.0267180000  -10.0724830000    3.4608740000
H     -7.1187480000  -11.4765890000    3.4183400000
H     -7.5415060000   -9.9998690000    2.5402220000
H     -4.2968800000  -11.5475870000   -0.6550060000
H     -3.3233660000  -10.9670750000    0.7137160000
H     -3.6140450000   -9.9042510000   -0.6818740000
H     -6.8196840000   -4.8397040000   -3.2337120000
H     -5.7291170000   -4.2844530000   -1.9723240000
H     -8.5962210000   -5.3322530000   -1.4646100000
H     -8.1735250000   -3.6189150000   -1.6640060000
H     -7.5709240000   -4.5189150000   -0.2638050000
H     -4.4351920000   -6.1891960000   -3.4632190000
H     -5.9401060000   -6.8305490000   -4.1594710000
H     -4.8837340000   -7.8875300000   -3.1933640000