121
BCDT-4F.out: Geometry 166
C      2.3321850000   -1.2139340000   -3.6165210000
O      1.5554660000   -1.9937620000   -3.1044840000
C      2.5299030000   -0.9858020000   -5.0712740000
C      1.8920780000   -1.6267520000   -6.1276020000
C      2.2561440000   -1.2565160000   -7.4177840000
C      3.2356480000   -0.2664720000   -7.6246360000
C      3.8628520000    0.3844810000   -6.5638480000
C      3.5020250000    0.0164470000   -5.2616860000
C      3.9167100000    0.5396260000   -3.9316110000
C      4.5613610000    1.7547200000   -3.7413210000
C      4.6327250000    2.4164780000   -2.4797610000
N      4.6968870000    2.9963100000   -1.4742250000
C      5.1293070000    2.5049570000   -4.8171090000
N      5.6218440000    3.1180680000   -5.6734490000
C      3.3228500000   -0.3255550000   -2.9244590000
F      3.5648190000    0.0524110000   -8.8739740000
C      3.5261170000   -0.5282210000   -1.5725890000
F      1.6867470000   -1.8329220000   -8.4740340000
C     13.7932940000    5.0885680000   18.7925470000
O     13.0797150000    6.0543880000   18.9706780000
C     14.9681400000    4.6790970000   19.6102980000
C     15.5271830000    5.3367560000   20.7009280000
C     16.6352840000    4.7542580000   21.3102870000
C     17.1455770000    3.5310070000   20.8385600000
C     16.5809980000    2.8729050000   19.7468510000
C     15.4780050000    3.4620580000   19.1160000000
C     14.6230600000    3.0099440000   17.9827990000
C     14.6010480000    1.7128860000   17.4858960000
C     13.5372480000    1.2182380000   16.6766020000
N     12.6638230000    0.7884320000   16.0411870000
C     15.5664320000    0.7272880000   17.8568010000
N     16.3541230000   -0.0795820000   18.1397750000
C     13.6939650000    4.0820170000   17.6850280000
F     18.1934890000    2.9931350000   21.4607300000
C     12.8347550000    4.3809690000   16.6416890000
F     17.2297220000    5.3441090000   22.3462640000
C     12.7457790000    3.9273490000   15.3072920000
S     11.2965630000    4.3618800000   14.3768620000
C     11.9306110000    3.6045340000   12.9785450000
C     13.2211030000    3.0672200000   13.1837200000
C     13.6627960000    3.2278360000   14.4945090000
C     11.5104870000    3.3260830000   11.6406980000
C     12.5384310000    2.6412130000   10.9879470000
C     13.7310970000    2.4058760000   11.9030630000
S     10.1085410000    3.5196780000   10.6519190000
C     10.9284940000    2.7131860000    9.3035220000
C     12.2172010000    2.3060790000    9.6681520000
C     10.2816690000    2.5188010000    8.0183870000
C     10.9896590000    2.2482100000    6.8419280000
C     10.3481640000    1.9461830000    5.5890470000
C      8.9630340000    1.9280680000    5.4167480000
C      8.2037970000    2.2563870000    6.5955300000
C      8.8487750000    2.5541810000    7.8657010000
N      6.8764230000    2.3255160000    6.6561940000
S      6.4695980000    2.7521210000    8.1892470000
N      7.9793350000    2.8554220000    8.8277670000
C      8.3269260000    1.5936240000    4.1543650000
S      6.6601960000    1.0008080000    4.0883760000
C      6.7771300000    0.8128370000    2.3781130000
C      8.0118780000    1.2353620000    1.8693590000
C      8.8916620000    1.6581700000    2.8752860000
C      5.9556320000    0.3766340000    1.2901200000
C      6.6761840000    0.5227330000    0.0887410000
C      8.0585140000    1.1160170000    0.3508470000
S      4.3502300000   -0.1759720000    1.0343090000
C      4.5962100000   -0.1590300000   -0.7241140000
C      5.9114990000    0.2300490000   -1.0363090000
O     12.3457700000    2.1856740000    6.8549230000
O     11.1752740000    1.6584000000    4.5457030000
C     13.0879730000    3.1809940000    6.1214930000
C     13.6900350000    4.2013010000    7.0680150000
C     11.6705880000    0.3076340000    4.4880640000
C     12.3083220000    0.1005490000    3.1303560000
C      9.2170070000    0.2041260000   -0.1191340000
C      9.1845440000   -1.2180740000    0.4343890000
C      8.1121720000    2.5134520000   -0.3340040000
C      9.4021630000    3.3071370000   -0.1398440000
C     13.9849210000    0.8897550000   12.0951570000
C     12.7595680000    0.0884230000   12.5279050000
C     14.9681120000    3.1325490000   11.3080240000
C     16.2786350000    2.9745890000   12.0718320000
H      1.1318620000   -2.3904160000   -5.9548490000
H      4.6064010000    1.1450070000   -6.7955250000
H      2.7338600000   -1.1389710000   -1.1186970000
H     15.1128940000    6.2740650000   21.0752140000
H     17.0245630000    1.9311380000   19.4313400000
H     12.1479580000    5.1966080000   16.9061760000
H     14.6220840000    2.8807240000   14.8740430000
H     12.8651590000    1.7717340000    8.9809120000
H      9.9021630000    2.0192110000    2.7156100000
H      6.2705690000    0.2772170000   -2.0634330000
H     12.4321530000    3.6590270000    5.3796500000
H     13.8704470000    2.6372730000    5.5705980000
H     12.9070740000    4.7543150000    7.6082410000
H     14.2980120000    4.9243270000    6.4999160000
H     14.3360970000    3.7137540000    7.8134660000
H     10.8272090000   -0.3875310000    4.6444870000
H     12.3957230000    0.1552830000    5.3053520000
H     11.5581760000    0.1798300000    2.3294050000
H     12.7726370000   -0.8960540000    3.0747550000
H     13.0894270000    0.8545660000    2.9502510000
H     10.1645520000    0.6874160000    0.1689170000
H      9.2087290000    0.1805800000   -1.2222080000
H      9.2582180000   -1.2238950000    1.5336180000
H     10.0233650000   -1.8099440000    0.0372120000
H      8.2528510000   -1.7370970000    0.1597470000
H      7.2505130000    3.0981130000    0.0234780000
H      7.9353850000    2.3606150000   -1.4118930000
H      9.6121010000    3.5025740000    0.9225180000
H      9.3191780000    4.2824510000   -0.6421680000
H     10.2741100000    2.7931040000   -0.5712670000
H     14.7867270000    0.7577470000   12.8393050000
H     14.3804100000    0.4960140000   11.1426720000
H     12.3916000000    0.4183710000   13.5111010000
H     13.0167100000   -0.9785920000   12.6134900000
H     11.9374070000    0.1801720000   11.8018110000
H     14.7144310000    4.2014750000   11.2160810000
H     15.1027370000    2.7579600000   10.2787650000
H     16.1930200000    3.3311780000   13.1099220000
H     17.0715030000    3.5671740000   11.5909130000
H     16.6183450000    1.9285390000   12.0958900000