142
BTA3.out: Geometry 50
C      2.2437980000   -2.9309080000   -0.0552820000
C      2.2528330000   -2.3429300000    1.2414110000
C      1.2096880000   -1.5070350000    1.6723520000
C      0.1345360000   -1.3173030000    0.8150280000
C      0.0773140000   -1.9999710000   -0.4318310000
C      1.1436030000   -2.7922750000   -0.8863130000
C      3.5506660000   -3.6996670000   -0.3196730000
C      4.1636810000   -3.6838020000    1.0787020000
C      3.4275380000   -2.8569400000    1.9164690000
C      5.2207760000   -4.3415440000    1.7346930000
C      5.2767850000   -4.0341570000    3.0946010000
S      4.0248490000   -2.8618410000    3.5337890000
C     -1.1482730000   -0.4897060000    1.0495130000
C     -1.9422710000   -0.8460320000   -0.2046100000
C     -1.2166590000   -1.7107670000   -1.0089010000
C     -3.2029090000   -0.5121460000   -0.7381040000
C     -3.4621350000   -1.1894640000   -1.9270720000
S     -2.0893820000   -2.1879560000   -2.4165120000
C      6.1297110000   -4.6223790000    4.1020450000
C     -4.7091110000   -1.2358790000   -2.6605140000
C     -1.8158100000   -0.9707040000    2.3455560000
C     -0.9249250000    1.0292400000    1.0238610000
C      3.2967060000   -5.1065630000   -0.8742000000
C      4.4809840000   -2.9185420000   -1.2752850000
C      6.0605940000   -4.2924160000    5.4648360000
C      6.8479200000   -4.9062320000    6.4603550000
C      7.7966370000   -5.8979840000    6.1767330000
C      7.8913320000   -6.2483980000    4.7933820000
C      7.0873640000   -5.6409960000    3.7843830000
C     -5.1092920000   -2.3487450000   -3.4093480000
C     -6.3957420000   -2.4777550000   -3.9684100000
C     -7.3896520000   -1.4985450000   -3.8417880000
C     -6.9567520000   -0.2943680000   -3.2009760000
C     -5.6615760000   -0.1710100000   -2.6126350000
N      8.6695040000   -7.1768540000    4.2071390000
N      8.3295710000   -7.1038960000    2.9318160000
N      7.4022270000   -6.2214810000    2.6061420000
N     -7.6169600000    0.8612900000   -2.9999130000
N     -6.7427850000    1.6039270000   -2.3376530000
N     -5.5692610000    1.0601470000   -2.0697880000
C      8.6600970000   -6.5701160000    7.1129700000
C      8.6106060000   -6.6472500000    8.4684650000
C     -8.7775250000   -1.6577140000   -4.1932290000
C     -9.4583740000   -2.8053880000   -4.4563040000
C     -7.0263250000    2.9871750000   -2.0012670000
C      8.9609000000   -7.9425570000    1.9311370000
C    -10.9290710000   -2.8144890000   -4.6034630000
N    -11.3971790000   -4.1535050000   -4.6773640000
C    -10.4392820000   -5.1220140000   -4.6612690000
S     -8.8190430000   -4.4457950000   -4.5095190000
C      9.6100570000   -7.4380230000    9.2153190000
N      9.2646700000   -7.4837970000   10.5901840000
C      8.1420360000   -6.7978300000   10.9447140000
S      7.3952220000   -5.9935740000    9.5614140000
C     10.1044030000   -8.2599700000   11.4994320000
O     10.5836540000   -7.9943690000    8.7617210000
C      7.5651700000   -6.6777250000   12.2013000000
C      6.3631290000   -5.9147460000   12.3233740000
C      8.0826290000   -7.2703890000   13.3908360000
C      3.2091480000   -6.2276270000   -0.0424510000
C      3.0332920000   -7.5067480000   -0.5795110000
C      2.9242610000   -7.7090990000   -1.9606710000
C      2.9648540000   -6.5752900000   -2.7874000000
C      3.1488280000   -5.3003320000   -2.2569210000
C      4.1272550000   -1.7048720000   -1.8722310000
C      4.9962180000   -1.0615210000   -2.7603150000
C      6.2463580000   -1.6033210000   -3.0784660000
C      6.6000570000   -2.8195260000   -2.4702360000
C      5.7380890000   -3.4617590000   -1.5854050000
C     -2.7608260000   -2.0019040000    2.3457800000
C     -3.2947320000   -2.4875630000    3.5431830000
C     -2.9009580000   -1.9641040000    4.7810760000
C     -1.9502120000   -0.9292330000    4.7753240000
C     -1.4193940000   -0.4398050000    3.5831340000
C      0.2213550000    1.6108980000    0.4725730000
C      0.3174120000    2.9990180000    0.3239140000
C     -0.7247310000    3.8480080000    0.7162410000
C     -1.8625560000    3.2592400000    1.2933280000
C     -1.9632770000    1.8787640000    1.4410130000
O    -11.6664550000   -1.8561550000   -4.6250690000
C    -12.8334470000   -4.4049830000   -4.7283810000
C    -10.5913780000   -6.4987360000   -4.7464000000
C     -9.4117470000   -7.3051170000   -4.6998200000
C    -11.8345770000   -7.1841740000   -4.8819950000
N      5.3832220000   -5.2932110000   12.3925430000
N      8.4845330000   -7.7441150000   14.3732810000
N    -12.8250110000   -7.7832350000   -4.9900430000
N     -8.4335950000   -7.9319680000   -4.6604780000
C     -3.4717620000   -2.4890740000    6.0749180000
C     -0.6558600000    5.3386460000    0.5045970000
C      7.1913320000   -0.8970680000   -4.0166700000
C      2.7773980000   -9.0882090000   -2.5508500000
H      1.2340950000   -1.0402500000    2.6583620000
H      1.0994690000   -3.2947270000   -1.8536310000
H      5.8993130000   -5.0622580000    1.2855370000
H     -3.9254740000    0.1621930000   -0.2825240000
H      5.3547240000   -3.5221020000    5.7834120000
H      6.7169410000   -4.5538940000    7.4850380000
H     -4.4222870000   -3.1914930000   -3.5104780000
H     -6.6064070000   -3.3998680000   -4.5091500000
H      9.4790750000   -7.1466950000    6.6707920000
H     -9.4001340000   -0.7588320000   -4.1477290000
H     -8.1003440000    3.1523580000   -2.1395670000
H     -6.4572700000    3.6551780000   -2.6633140000
H     -6.7282310000    3.1751020000   -0.9616050000
H      9.6006830000   -8.6590430000    2.4574800000
H      9.5637390000   -7.3221620000    1.2519420000
H      8.1882070000   -8.4665190000    1.3526300000
H     10.8929230000   -8.7062890000   10.8826200000
H      9.5195990000   -9.0490110000   11.9889430000
H     10.5504520000   -7.6134560000   12.2662880000
H      3.3035000000   -6.1092330000    1.0383000000
H      2.9946620000   -8.3676510000    0.0934130000
H      2.8704540000   -6.6966310000   -3.8705430000
H      3.2188390000   -4.4452320000   -2.9313650000
H      3.1588630000   -1.2524320000   -1.6602760000
H      4.6837770000   -0.1215160000   -3.2233970000
H      7.5650390000   -3.2763090000   -2.7068680000
H      6.0351180000   -4.4151310000   -1.1445010000
H     -3.0871160000   -2.4382130000    1.4005530000
H     -4.0340800000   -3.2924440000    3.5121850000
H     -1.6199750000   -0.4930100000    5.7227180000
H     -0.6954610000    0.3778130000    3.6107800000
H      1.0466220000    0.9777320000    0.1429030000
H      1.2211210000    3.4293650000   -0.1169700000
H     -2.6876300000    3.8951500000    1.6267300000
H     -2.8622990000    1.4487640000    1.8874160000
H    -13.3237360000   -3.4278820000   -4.6493530000
H    -13.1414700000   -5.0478000000   -3.8934740000
H    -13.1154520000   -4.8873330000   -5.6738250000
H     -4.2373320000   -3.2575080000    5.8955720000
H     -3.9346140000   -1.6820610000    6.6670490000
H     -2.6849490000   -2.9394380000    6.7037410000
H      0.3527230000    5.6630760000    0.2084660000
H     -0.9440520000    5.8913640000    1.4133570000
H     -1.3516440000    5.6538720000   -0.2912560000
H      6.6489020000   -0.2477810000   -4.7207290000
H      7.7930640000   -1.6101090000   -4.6020490000
H      7.8978550000   -0.2580500000   -3.4575700000
H      2.9145580000   -9.8692470000   -1.7886590000
H      3.5170050000   -9.2617080000   -3.3488030000
H      1.7814980000   -9.2281370000   -3.0047110000