59
BTDT2R.out: Geometry 48
C      0.9166990000    1.9383790000    0.4682910000
C      2.0855270000    1.2423220000    0.1515030000
C      2.1992120000   -0.1946210000    0.1890240000
C      1.1181220000   -1.0443820000    0.4471930000
C     -0.1163210000   -0.3566280000    0.7337870000
C     -0.2079700000    1.0945630000    0.7745810000
N     -1.2749500000   -0.9509630000    1.0055980000
S     -2.3895900000    0.2158450000    1.2838870000
N     -1.4285410000    1.5299250000    1.0775700000
O      3.2017990000    1.9311810000   -0.2213280000
O      3.4102110000   -0.7257360000   -0.1302550000
C      4.4900620000   -0.4981840000    0.7772190000
C      3.4930590000    1.9196220000   -1.6211720000
C      0.8089850000    3.3897650000    0.4497880000
C      1.1917670000   -2.5000190000    0.4101620000
S     -0.7358790000    4.2120630000    0.5055600000
C      0.0184820000    5.7847360000    0.3867740000
C      1.4061370000    5.6592960000    0.3439630000
C      1.8444180000    4.3267130000    0.3781120000
C      2.3272100000   -3.3124260000    0.3141220000
C      2.0241320000   -4.6775260000    0.2691120000
C      0.6542220000   -4.9583750000    0.3106020000
S     -0.2651030000   -3.4775930000    0.4537770000
C     -0.8011300000    6.9599030000    0.3559420000
C     -0.4053000000    8.2605640000    0.2715670000
C      0.1667540000   -6.3031950000    0.2274870000
C     -1.0803130000   -6.8586940000    0.2099390000
C     -1.3984910000    9.3607030000    0.2197780000
N     -0.7333080000   10.5973620000    0.0897430000
C      0.6382210000   10.5796190000    0.0554580000
S      1.2276220000    8.9100300000    0.1940770000
S     -1.3390230000   -8.6044740000    0.0576250000
C     -3.0962780000   -8.4307990000    0.1329690000
N     -3.4273860000   -7.1040520000    0.2820880000
C     -2.3774460000   -6.1685590000    0.3027590000
O     -2.6044530000    9.2492610000    0.2743870000
C     -1.4841500000   11.8388330000   -0.0101200000
S      1.6323230000   11.8765310000   -0.0860320000
S     -4.1400950000   -9.6939570000    0.0286090000
C     -4.8085330000   -6.6613200000    0.3831330000
O     -2.5628980000   -4.9699840000    0.3889690000
H      4.2513940000   -0.9134620000    1.7714640000
H      4.7179710000    0.5733620000    0.8661130000
H      5.3571210000   -1.0273210000    0.3600130000
H      4.3039360000    2.6428060000   -1.7774910000
H      2.6091330000    2.2376110000   -2.1987630000
H      3.8094360000    0.9184030000   -1.9528160000
H      2.0872300000    6.5059710000    0.2825240000
H      2.8880990000    4.0297720000    0.3504530000
H      3.3357110000   -2.9193850000    0.2640610000
H      2.7777760000   -5.4633970000    0.1923040000
H     -1.8882270000    6.8263850000    0.3810380000
H      0.9893380000   -7.0232940000    0.1470450000
H     -2.5457570000   11.5720010000   -0.0809600000
H     -1.1574840000   12.4004590000   -0.8970320000
H     -1.3055370000   12.4665860000    0.8761040000
H     -5.3473450000   -7.3094830000    1.0860400000
H     -5.3090980000   -6.7226890000   -0.5951070000
H     -4.7947850000   -5.6211840000    0.7298530000