96
CPDT-4Cl.out: Geometry 103
C     -0.5757540000    2.0149490000    1.5680600000
C     -1.6391950000    2.3552510000    2.4142570000
C     -1.5807970000    3.5006670000    3.2395760000
C     -0.4370740000    4.3074570000    3.2367360000
C      0.6190940000    3.9507890000    2.4124850000
C      0.5649150000    2.8193190000    1.5707740000
C      1.9421370000    4.6220140000    2.2662950000
C      2.7363800000    3.7303350000    1.3596910000
C      1.8139730000    2.7624590000    0.7764470000
C      4.1041880000    3.8576190000    1.3010030000
C      5.0831660000    2.9061230000    0.9026300000
C      6.3816470000    3.1748130000    0.4364780000
C      7.0700110000    2.0226780000    0.0355570000
C      6.3205890000    0.8570680000    0.2733180000
S      4.7719040000    1.1654740000    0.9423490000
C      8.3949340000    1.6708860000   -0.6494680000
C      8.2766700000    0.1483450000   -0.7043540000
C      7.0611910000   -0.2794640000   -0.1632170000
C      9.0315180000   -0.9104500000   -1.2377350000
C      8.3898290000   -2.1458570000   -1.1049180000
S      6.8295520000   -1.9827800000   -0.2987590000
C      8.8045920000   -3.4349520000   -1.5756280000
S     10.2674070000   -3.6042550000   -2.5457010000
C      9.9687140000   -5.2967740000   -2.7332450000
C      8.8055750000   -5.7097810000   -2.0752170000
C      8.1473640000   -4.6589550000   -1.4191440000
C     10.5471840000   -6.4177200000   -3.4026850000
C      9.7459680000   -7.5566840000   -3.1603080000
C      8.5552280000   -7.1993520000   -2.2741550000
S     11.8803650000   -6.7498520000   -4.4210940000
C     11.3838120000   -8.4591800000   -4.5565980000
C     10.2265500000   -8.7018300000   -3.7866700000
C     12.1547650000   -9.2575330000   -5.4311610000
C     12.0419790000  -10.5754140000   -5.8480000000
C     12.9082310000  -11.2188490000   -6.8431240000
C     12.4150200000  -12.6068290000   -7.0332590000
C     11.3317370000  -12.8203410000   -6.1626860000
C     11.0424140000  -11.5832660000   -5.3988270000
C     12.8138810000  -13.6406560000   -7.8855480000
C     12.1282460000  -14.8614830000   -7.8306850000
C     11.0633430000  -15.0665280000   -6.9270430000
C     10.6540570000  -14.0262040000   -6.0871000000
Cl    10.2500740000  -16.5919910000   -6.8511200000
Cl    12.6117110000  -16.1292630000   -8.9051010000
O     10.1440330000  -11.4803580000   -4.5784730000
C     14.0005870000  -10.6876720000   -7.5117420000
C     14.7885720000  -11.4512060000   -8.4292960000
C     14.4671510000   -9.3455040000   -7.3517140000
C      8.5852910000   -7.9497040000   -0.9182230000
C      7.1996480000   -7.4052830000   -3.0100100000
C      6.8854850000   -8.8361960000   -3.4439040000
C      9.8860660000   -7.7949110000   -0.1321560000
C      9.6422350000    2.1291960000    0.1424340000
C      8.4339180000    2.2045170000   -2.1119450000
C      8.3959670000    3.7213090000   -2.2797630000
C      9.7338460000    1.6011750000    1.5719830000
O      2.3117260000    5.6399530000    2.8125250000
Cl    -3.0409590000    1.3392840000    2.4265070000
Cl    -2.9108250000    3.9204650000    4.2650480000
C      1.9587110000    2.1069820000   -0.4338610000
C      1.0024350000    1.1603870000   -0.9122570000
C      3.0324630000    2.3960590000   -1.3322390000
N      3.8730560000    2.6576990000   -2.0905850000
N      0.2425630000    0.3651470000   -1.2884000000
N     15.4465400000  -12.0618310000   -9.1678200000
N     14.8655710000   -8.2584760000   -7.2417520000
H     -0.6684870000    1.1266900000    0.9472310000
H     -0.3790900000    5.1960490000    3.8664730000
H      4.4884280000    4.8092510000    1.6898560000
H      6.7584060000    4.1950680000    0.3648370000
H     10.0022730000   -0.8037600000   -1.7232140000
H      7.2178380000   -4.7587840000   -0.8578680000
H      9.8005160000   -9.7012050000   -3.7420460000
H     12.9763410000   -8.7009950000   -5.8808350000
H     13.6312990000  -13.5429880000   -8.5945350000
H      9.8221960000  -14.1537930000   -5.3936200000
H      8.3926930000   -9.0174860000   -1.1070210000
H      7.7347200000   -7.5844200000   -0.3169370000
H      7.1912060000   -6.7467250000   -3.8935630000
H      6.4032050000   -7.0324100000   -2.3428920000
H      7.6174220000   -9.2116170000   -4.1726560000
H      5.8963840000   -8.8775230000   -3.9264500000
H      6.8659910000   -9.5370620000   -2.5958970000
H     10.7455660000   -8.1718750000   -0.7076030000
H      9.8395430000   -8.3634540000    0.8081950000
H     10.0869820000   -6.7424740000    0.1206920000
H      9.6574930000    3.2306190000    0.1533960000
H     10.5315210000    1.8167580000   -0.4327080000
H      7.5859130000    1.7600500000   -2.6562740000
H      9.3486500000    1.8006760000   -2.5783550000
H      7.4239600000    4.1344260000   -1.9718940000
H      8.5408040000    3.9866780000   -3.3381090000
H      9.1834650000    4.2329560000   -1.7073720000
H      8.8438640000    1.8804280000    2.1582460000
H     10.6126790000    2.0197180000    2.0856370000
H      9.8201110000    0.5035330000    1.5955190000