170
NIDT.out: Geometry 77
C      4.5197110000    0.2880120000    4.2503940000
C      5.6279390000    0.0443800000    3.3962450000
C      6.8044320000    0.7651290000    3.5459110000
C      6.8494610000    1.7533400000    4.5401970000
C      5.7648290000    1.9497960000    5.4453840000
C      4.5937220000    1.2158320000    5.3109660000
C      3.4181550000   -0.5012330000    3.7340010000
C      3.8026800000   -1.2232120000    2.6126410000
C      5.2631740000   -0.9577120000    2.2768780000
S      1.7435350000   -0.7046950000    4.1726860000
C      1.5314250000   -1.8054080000    2.8213220000
C      2.7323140000   -1.9854470000    2.0968860000
C      7.7909710000    2.8255380000    4.7759950000
C      7.3098510000    3.7008390000    5.7409150000
C      6.0708460000    3.1112390000    6.4201680000
S      9.2378070000    3.3749810000    3.9752490000
C      9.1547650000    4.8752300000    4.8834010000
C      8.0663390000    4.8917990000    5.7876710000
C      6.1194780000   -2.2263210000    2.3904270000
C      5.3533580000   -0.3428120000    0.8678280000
C      4.8725600000    4.0463860000    6.5486940000
C      6.5656810000    2.6248950000    7.7998130000
C      0.0614940000   -4.4111340000    0.6073940000
C     -1.2804920000   -4.5817630000    0.4529340000
C      9.7010970000    8.4380100000    5.5383570000
C      9.2061470000    9.6251470000    6.0051770000
C     -2.4711080000   -3.7345030000    0.6468800000
C     -3.6031390000   -4.5694530000    0.4010550000
C     -3.2674370000   -5.8873620000    0.0451230000
C     -1.7728970000   -5.9539020000    0.0187020000
C      9.7555870000   10.9430200000    5.6630640000
C      8.8911520000   11.9153010000    6.2319190000
C      7.8190370000   11.3538380000    6.9472570000
C      7.9829900000    9.8562410000    6.8548120000
C     -2.7337260000   -2.3916480000    0.9098600000
C     -4.0786110000   -1.9282680000    0.9574610000
C     -5.1731360000   -2.7700380000    0.7585790000
C     -4.9302310000   -4.1304480000    0.4611840000
C     -5.9516580000   -5.0749890000    0.2068430000
C     -5.6173600000   -6.3907510000   -0.1102120000
C     -4.2670980000   -6.8105930000   -0.2055420000
C     -6.5794100000   -2.3025110000    0.8413750000
N     -7.5771660000   -3.2744650000    0.6051620000
C     -7.3665240000   -4.6324050000    0.2983750000
C     -8.9765480000   -2.8391530000    0.7474480000
C     -9.5468060000   -2.0899770000   -0.4684800000
C     -9.4952240000   -2.9242750000   -1.7514220000
C    -10.9798740000   -1.6521780000   -0.1455240000
C      6.8820070000   12.1965770000    7.5296670000
C      7.0328860000   13.6015750000    7.3644160000
C      8.1016880000   14.1501620000    6.6491760000
C      9.0633050000   13.2921080000    6.0686950000
C     10.1737560000   13.7396320000    5.3144630000
C     11.0385840000   12.7971960000    4.7620910000
C     10.8395350000   11.4015690000    4.9218740000
C     10.3705480000   15.1916770000    5.1324190000
N      9.3753900000   16.0263880000    5.6871140000
C      8.2534470000   15.6164400000    6.4310620000
C      9.5226690000   17.4702840000    5.4737470000
C     10.1066440000   18.2337040000    6.6756410000
C     11.4326810000   17.6364890000    7.1614540000
C     10.2705960000   19.7067110000    6.2839220000
C      5.3564200000    1.0420620000    0.6695990000
C      5.4347510000    1.5847990000   -0.6118770000
C      5.5057030000    0.7659330000   -1.7458570000
C      5.4501660000   -0.6210980000   -1.5497350000
C      5.3720300000   -1.1670770000   -0.2662570000
C      7.4391060000   -2.2264550000    1.9106630000
C      8.2149100000   -3.3800880000    1.9557260000
C      7.7081070000   -4.5865810000    2.4680950000
C      6.3972100000   -4.5762330000    2.9615720000
C      5.6183220000   -3.4133480000    2.9304150000
C      4.6663700000    5.1128080000    5.6649000000
C      3.5119680000    5.8949380000    5.7493300000
C      2.5272240000    5.6396240000    6.7119860000
C      2.7447840000    4.5766930000    7.6041950000
C      3.8979300000    3.7958700000    7.5263820000
C      6.6379810000    1.2753280000    8.1610180000
C      7.1299870000    0.9029380000    9.4139670000
C      7.5713860000    1.8542550000   10.3477600000
C      7.4960200000    3.2046210000    9.9782640000
C      6.9977760000    3.5826550000    8.7308120000
O     -6.8873350000   -1.1504800000    1.0867210000
O     -8.3024800000   -5.3832140000    0.0965610000
O     -1.0884290000   -6.9043560000   -0.2926450000
O      7.2538630000    9.0081390000    7.3355670000
O     11.3035360000   15.6625870000    4.5092460000
O      7.4397920000   16.4338890000    6.8211320000
C      8.5816490000   -5.8249500000    2.4611640000
C      5.7070310000    1.3755040000   -3.1127160000
C      7.8483040000   -7.1654800000    2.4972120000
C      7.1616830000    1.8229180000   -3.3263630000
C      1.2774360000    6.4860980000    6.8018150000
C     -0.0257630000    5.6975620000    6.6216150000
C      8.1161690000    1.3867140000   11.6822980000
C      8.4804710000    2.4771710000   12.6868900000
C      0.4454480000   -2.5659460000    2.3403260000
C      0.8107430000   -3.3759490000    1.2655950000
S      2.5196540000   -3.1618960000    0.8442940000
C      9.8440440000    6.0912770000    4.8171880000
C      9.2610940000    7.0828220000    5.6170830000
S      7.8693840000    6.4543830000    6.5218440000
H      7.6372070000    0.6291100000    2.8529640000
H      3.7371080000    1.4046460000    5.9601730000
H      0.6526920000   -5.2371480000    0.1901420000
H     10.5805420000    8.5342440000    4.8907680000
H     -1.9247130000   -1.6778540000    1.0805940000
H     -4.2815470000   -0.8772990000    1.1731100000
H     -6.4301310000   -7.0925400000   -0.3049720000
H     -4.0217940000   -7.8363820000   -0.4882890000
H     -9.0251450000   -2.1856020000    1.6276530000
H     -9.5663440000   -3.7433300000    0.9391530000
H     -8.9367040000   -1.1834730000   -0.6111580000
H    -10.0706390000   -3.8569650000   -1.6425150000
H     -8.4639800000   -3.2049380000   -2.0165420000
H     -9.9153440000   -2.3603610000   -2.5998010000
H    -11.6205560000   -2.5259860000    0.0614640000
H    -11.4260850000   -1.1057600000   -0.9912650000
H    -11.0136470000   -0.9948550000    0.7378990000
H      6.0336560000   11.7929580000    8.0869710000
H      6.3037380000   14.2886840000    7.7985400000
H     11.8884590000   13.1670740000    4.1844620000
H     11.5411810000   10.7096100000    4.4511140000
H      8.5270840000   17.8672270000    5.2328140000
H     10.1825270000   17.5892430000    4.6056860000
H      9.3692550000   18.1671400000    7.4939200000
H     12.1745850000   17.6097530000    6.3481850000
H     11.3050690000   16.6062320000    7.5287350000
H     11.8461780000   18.2316370000    7.9900250000
H     11.0267900000   19.8172420000    5.4881750000
H     10.6029270000   20.3115040000    7.1420430000
H      9.3280170000   20.1395960000    5.9096180000
H      5.2975120000    1.7096430000    1.5234720000
H      5.4619580000    2.6721440000   -0.7300910000
H      5.4899210000   -1.2889760000   -2.4144460000
H      5.3440940000   -2.2517260000   -0.1463120000
H      7.8539680000   -1.3207000000    1.4654110000
H      9.2325110000   -3.3534110000    1.5566520000
H      5.9581770000   -5.4872180000    3.3714570000
H      4.5927810000   -3.4510580000    3.3028320000
H      5.4177000000    5.3522520000    4.9144950000
H      3.3747390000    6.7221620000    5.0483380000
H      2.0016570000    4.3547880000    8.3757380000
H      4.0491370000    2.9808170000    8.2383980000
H      6.3089630000    0.5038030000    7.4632170000
H      7.1739690000   -0.1592050000    9.6746300000
H      7.8299530000    3.9822080000   10.6671460000
H      6.9499570000    4.6462610000    8.4728190000
H      9.2789750000   -5.7659510000    3.3174490000
H      9.2250200000   -5.7842670000    1.5656600000
H      5.0361380000    2.2433250000   -3.2313610000
H      5.4177480000    0.6509310000   -3.8911700000
H      7.3023850000   -7.3157730000    3.4420860000
H      8.5632830000   -7.9966160000    2.3964610000
H      7.1184050000   -7.2450960000    1.6765950000
H      7.4641600000    2.5505900000   -2.5577370000
H      7.3014670000    2.2958150000   -4.3118780000
H      7.8495520000    0.9659220000   -3.2515030000
H      1.3343900000    7.2888200000    6.0477910000
H      1.2589900000    6.9918030000    7.7840520000
H     -0.0619970000    5.2088450000    5.6353050000
H     -0.8991490000    6.3628760000    6.7092420000
H     -0.1344540000    4.9077410000    7.3830640000
H      9.0066520000    0.7617770000   11.4907330000
H      7.3743950000    0.7023890000   12.1328260000
H      9.2584010000    3.1534620000   12.2968690000
H      8.8717150000    2.0270900000   13.6116890000
H      7.6071230000    3.0929090000   12.9539720000
H     -0.5393080000   -2.6087540000    2.8063830000
H     10.6833570000    6.3017650000    4.1541190000